/*---------------------------------------------------------------------------*\
| =========                 |                                                 |
| \\      /  F ield         | OpenFOAM: The Open Source CFD Toolbox           |
|  \\    /   O peration     | Version:  2.3.0                                 |
|   \\  /    A nd           | Web:      www.OpenFOAM.org                      |
|    \\/     M anipulation  |                                                 |
\*---------------------------------------------------------------------------*/
Build  : 2.3.0-f5222ca19ce6
Exec   : /home/matveich1/OpenFOAM/OpenFOAM-2.3.0/platforms/linux64GccDPOpt/bin/simpleFoam
Date   : Nov 07 2014
Time   : 15:43:59
Host   : "baloo054.ijl.nancy-universite.fr"
PID    : 31182
Case   : /scratch/matveich1/Projects/Simulations/tube-pressure-drop-2D
nProcs : 1
sigFpe : Enabling floating point exception trapping (FOAM_SIGFPE).
fileModificationChecking : Monitoring run-time modified files using timeStampMaster
allowSystemOperations : Disallowing user-supplied system call operations

// * * * * * * * * * * * * * * * * * * * * * * * * * * * * * * * * * * * * * //
Create time

Create mesh for time = 0

Reading field p

Reading field U

Reading/calculating face flux field phi

Selecting incompressible transport model Newtonian
Selecting RAS turbulence model laminar
No finite volume options present


SIMPLE: convergence criteria
    field "(p|k|epsilon)"	 tolerance 1e-06
    field Ux	 tolerance 1e-06
    field Uz	 tolerance 1e-06


Starting time loop

Time = 1

DILUPBiCG:  Solving for Ux, Initial residual = 0.999999999981, Final residual = 0.000244951433604, No Iterations 1
DILUPBiCG:  Solving for Uy, Initial residual = 0.000137130712462, Final residual = 2.37473455274e-07, No Iterations 1
DILUPBiCG:  Solving for Uz, Initial residual = 0.00284588369178, Final residual = 2.54072913571e-06, No Iterations 1
GAMG:  Solving for p, Initial residual = 0.999999999974, Final residual = 3.39653555581, No Iterations 1000
time step continuity errors : sum local = 7.35521394881e-05, global = -5.76746835205e-08, cumulative = -5.76746835205e-08
ExecutionTime = 4.14 s  ClockTime = 4 s

Time = 2

DILUPBiCG:  Solving for Ux, Initial residual = 0.239182742376, Final residual = 0.000251155232927, No Iterations 1
DILUPBiCG:  Solving for Uy, Initial residual = 0.251747036413, Final residual = 0.000540430984323, No Iterations 1
DILUPBiCG:  Solving for Uz, Initial residual = 0.578605374409, Final residual = 0.00113908401217, No Iterations 1
GAMG:  Solving for p, Initial residual = 0.0174512659894, Final residual = 0.00872425102497, No Iterations 994
time step continuity errors : sum local = 5.27251782459e-05, global = -3.12366623208e-08, cumulative = -8.89113458412e-08
ExecutionTime = 8.15 s  ClockTime = 8 s

Time = 3

DILUPBiCG:  Solving for Ux, Initial residual = 0.158725776658, Final residual = 0.000238188788218, No Iterations 1
DILUPBiCG:  Solving for Uy, Initial residual = 0.208928526203, Final residual = 0.000472013554918, No Iterations 1
DILUPBiCG:  Solving for Uz, Initial residual = 0.253047259921, Final residual = 0.000621643933301, No Iterations 1
GAMG:  Solving for p, Initial residual = 0.0153365916965, Final residual = 0.00762368797502, No Iterations 426
time step continuity errors : sum local = 6.81788256527e-05, global = 1.33938672587e-07, cumulative = 4.50273267453e-08
ExecutionTime = 9.99 s  ClockTime = 10 s

Time = 4

DILUPBiCG:  Solving for Ux, Initial residual = 0.100717316948, Final residual = 0.000168631697412, No Iterations 1
DILUPBiCG:  Solving for Uy, Initial residual = 0.141642668563, Final residual = 0.000325002559367, No Iterations 1
DILUPBiCG:  Solving for Uz, Initial residual = 0.223496001857, Final residual = 0.000527657996117, No Iterations 1
GAMG:  Solving for p, Initial residual = 0.0166931551538, Final residual = 0.00959238830453, No Iterations 1000
time step continuity errors : sum local = 6.26700565444e-05, global = 5.3738935843e-08, cumulative = 9.87662625883e-08
ExecutionTime = 14.04 s  ClockTime = 14 s

Time = 5

DILUPBiCG:  Solving for Ux, Initial residual = 0.0473398608756, Final residual = 7.76290836443e-05, No Iterations 1
DILUPBiCG:  Solving for Uy, Initial residual = 0.120816969307, Final residual = 0.000192889867977, No Iterations 1
DILUPBiCG:  Solving for Uz, Initial residual = 0.128310301528, Final residual = 0.000359953943008, No Iterations 1
GAMG:  Solving for p, Initial residual = 0.113273040832, Final residual = 0.0565461029065, No Iterations 736
time step continuity errors : sum local = 8.54428751992e-05, global = 5.76268764923e-08, cumulative = 1.56393139081e-07
ExecutionTime = 17.11 s  ClockTime = 17 s

Time = 6

DILUPBiCG:  Solving for Ux, Initial residual = 0.038417848291, Final residual = 5.85288767953e-05, No Iterations 1
DILUPBiCG:  Solving for Uy, Initial residual = 0.125326755055, Final residual = 0.000243137450257, No Iterations 1
DILUPBiCG:  Solving for Uz, Initial residual = 0.085591072796, Final residual = 0.000218607207573, No Iterations 1
GAMG:  Solving for p, Initial residual = 0.165931713284, Final residual = 0.0827471555491, No Iterations 340
time step continuity errors : sum local = 9.45002896527e-05, global = -1.21691242717e-07, cumulative = 3.47018963637e-08
ExecutionTime = 18.65 s  ClockTime = 19 s

Time = 7

DILUPBiCG:  Solving for Ux, Initial residual = 0.0273229972808, Final residual = 4.18603678621e-05, No Iterations 1
DILUPBiCG:  Solving for Uy, Initial residual = 0.0617073524145, Final residual = 0.000132390288253, No Iterations 1
DILUPBiCG:  Solving for Uz, Initial residual = 0.150651231228, Final residual = 0.000397858082036, No Iterations 1
GAMG:  Solving for p, Initial residual = 0.549980993274, Final residual = 0.273517689005, No Iterations 458
time step continuity errors : sum local = 7.89268355425e-05, global = -1.43202141636e-07, cumulative = -1.08500245272e-07
ExecutionTime = 21.32 s  ClockTime = 22 s

Time = 8

DILUPBiCG:  Solving for Ux, Initial residual = 0.030636968521, Final residual = 4.81238335516e-05, No Iterations 1
DILUPBiCG:  Solving for Uy, Initial residual = 0.0702996129837, Final residual = 0.000153479757805, No Iterations 1
DILUPBiCG:  Solving for Uz, Initial residual = 0.175922354574, Final residual = 0.000397310055269, No Iterations 1
GAMG:  Solving for p, Initial residual = 0.0747117601627, Final residual = 0.0372748706118, No Iterations 338
time step continuity errors : sum local = 8.93130636484e-05, global = -1.40586398083e-07, cumulative = -2.49086643355e-07
ExecutionTime = 22.81 s  ClockTime = 23 s

Time = 9

DILUPBiCG:  Solving for Ux, Initial residual = 0.030243627441, Final residual = 4.76690370604e-05, No Iterations 1
DILUPBiCG:  Solving for Uy, Initial residual = 0.0749690923461, Final residual = 0.00017707000823, No Iterations 1
DILUPBiCG:  Solving for Uz, Initial residual = 0.126294427718, Final residual = 0.000307947900385, No Iterations 1
GAMG:  Solving for p, Initial residual = 0.0647312845654, Final residual = 0.0322992054813, No Iterations 280
time step continuity errors : sum local = 0.00010634211314, global = 4.04789383395e-08, cumulative = -2.08607705016e-07
ExecutionTime = 24.08 s  ClockTime = 24 s

Time = 10

DILUPBiCG:  Solving for Ux, Initial residual = 0.025499966394, Final residual = 4.06078056256e-05, No Iterations 1
DILUPBiCG:  Solving for Uy, Initial residual = 0.0601894088162, Final residual = 0.000140887682697, No Iterations 1
DILUPBiCG:  Solving for Uz, Initial residual = 0.132467798524, Final residual = 0.000333729707818, No Iterations 1
GAMG:  Solving for p, Initial residual = 0.0673615087813, Final residual = 0.0336337547956, No Iterations 378
time step continuity errors : sum local = 9.77597564458e-05, global = 1.11563961961e-07, cumulative = -9.70437430546e-08
ExecutionTime = 25.72 s  ClockTime = 26 s

Time = 11

DILUPBiCG:  Solving for Ux, Initial residual = 0.0212410148849, Final residual = 3.21140656616e-05, No Iterations 1
DILUPBiCG:  Solving for Uy, Initial residual = 0.0483788315874, Final residual = 0.000101904281879, No Iterations 1
DILUPBiCG:  Solving for Uz, Initial residual = 0.114828527941, Final residual = 0.000285151680781, No Iterations 1
GAMG:  Solving for p, Initial residual = 0.0957517427142, Final residual = 0.0478141138214, No Iterations 282
time step continuity errors : sum local = 9.90728775312e-05, global = 1.65323728495e-07, cumulative = 6.82799854401e-08
ExecutionTime = 27 s  ClockTime = 27 s

Time = 12

DILUPBiCG:  Solving for Ux, Initial residual = 0.0189728010626, Final residual = 2.741039066e-05, No Iterations 1
DILUPBiCG:  Solving for Uy, Initial residual = 0.0412232854536, Final residual = 8.90491556518e-05, No Iterations 1
DILUPBiCG:  Solving for Uz, Initial residual = 0.096476023059, Final residual = 0.000229008523588, No Iterations 1
GAMG:  Solving for p, Initial residual = 0.117320691739, Final residual = 0.0584414113289, No Iterations 218
time step continuity errors : sum local = 9.63358731666e-05, global = 8.67555371636e-08, cumulative = 1.55035522604e-07
ExecutionTime = 28.02 s  ClockTime = 28 s

Time = 13

DILUPBiCG:  Solving for Ux, Initial residual = 0.017784175631, Final residual = 2.69481272002e-05, No Iterations 1
DILUPBiCG:  Solving for Uy, Initial residual = 0.0349889680391, Final residual = 7.93654597657e-05, No Iterations 1
DILUPBiCG:  Solving for Uz, Initial residual = 0.112540678928, Final residual = 0.000282057661384, No Iterations 1
GAMG:  Solving for p, Initial residual = 0.0987533804332, Final residual = 0.0491472230145, No Iterations 266
time step continuity errors : sum local = 8.09991530126e-05, global = 1.29232705526e-08, cumulative = 1.67958793156e-07
ExecutionTime = 29.24 s  ClockTime = 30 s

Time = 14

DILUPBiCG:  Solving for Ux, Initial residual = 0.0170023406139, Final residual = 2.70970439493e-05, No Iterations 1
DILUPBiCG:  Solving for Uy, Initial residual = 0.0341640493778, Final residual = 8.21656634939e-05, No Iterations 1
DILUPBiCG:  Solving for Uz, Initial residual = 0.103328849557, Final residual = 0.000270676277182, No Iterations 1
GAMG:  Solving for p, Initial residual = 0.0936627853989, Final residual = 0.0468007616598, No Iterations 236
time step continuity errors : sum local = 8.21474438619e-05, global = -2.97074986858e-08, cumulative = 1.38251294471e-07
ExecutionTime = 30.33 s  ClockTime = 31 s

Time = 15

DILUPBiCG:  Solving for Ux, Initial residual = 0.0157736937325, Final residual = 2.49397338317e-05, No Iterations 1
DILUPBiCG:  Solving for Uy, Initial residual = 0.0334190846159, Final residual = 7.85568009429e-05, No Iterations 1
DILUPBiCG:  Solving for Uz, Initial residual = 0.0769965353199, Final residual = 0.00020480711697, No Iterations 1
GAMG:  Solving for p, Initial residual = 0.0947190314952, Final residual = 0.0472227368169, No Iterations 250
time step continuity errors : sum local = 8.10808623806e-05, global = -4.11546188543e-08, cumulative = 9.70966756162e-08
ExecutionTime = 31.48 s  ClockTime = 32 s

Time = 16

DILUPBiCG:  Solving for Ux, Initial residual = 0.014211174486, Final residual = 2.23544630847e-05, No Iterations 1
DILUPBiCG:  Solving for Uy, Initial residual = 0.0301118237798, Final residual = 6.93036364871e-05, No Iterations 1
DILUPBiCG:  Solving for Uz, Initial residual = 0.0807209138538, Final residual = 0.000219071844712, No Iterations 1
GAMG:  Solving for p, Initial residual = 0.0942418508102, Final residual = 0.0470003296672, No Iterations 336
time step continuity errors : sum local = 7.03304029942e-05, global = -5.32807789199e-08, cumulative = 4.38158966963e-08
ExecutionTime = 32.96 s  ClockTime = 33 s

Time = 17

DILUPBiCG:  Solving for Ux, Initial residual = 0.0124957311542, Final residual = 1.92633846627e-05, No Iterations 1
DILUPBiCG:  Solving for Uy, Initial residual = 0.0266911400303, Final residual = 6.06167291558e-05, No Iterations 1
DILUPBiCG:  Solving for Uz, Initial residual = 0.0679853944259, Final residual = 0.00018901279158, No Iterations 1
GAMG:  Solving for p, Initial residual = 0.105806268695, Final residual = 0.0527770291681, No Iterations 288
time step continuity errors : sum local = 6.75461429318e-05, global = -3.87360659019e-08, cumulative = 5.07983079437e-09
ExecutionTime = 34.26 s  ClockTime = 35 s

Time = 18

DILUPBiCG:  Solving for Ux, Initial residual = 0.0113124409501, Final residual = 1.71002699077e-05, No Iterations 1
DILUPBiCG:  Solving for Uy, Initial residual = 0.0256381302481, Final residual = 5.99886884443e-05, No Iterations 1
DILUPBiCG:  Solving for Uz, Initial residual = 0.0603729624986, Final residual = 0.000162428715188, No Iterations 1
GAMG:  Solving for p, Initial residual = 0.100868757921, Final residual = 0.0502787562146, No Iterations 200
time step continuity errors : sum local = 6.1765243693e-05, global = -2.37760095661e-08, cumulative = -1.86961787717e-08
ExecutionTime = 35.21 s  ClockTime = 35 s

Time = 19

DILUPBiCG:  Solving for Ux, Initial residual = 0.0109867487905, Final residual = 1.66059901825e-05, No Iterations 1
DILUPBiCG:  Solving for Uy, Initial residual = 0.0245106954334, Final residual = 5.93288575138e-05, No Iterations 1
DILUPBiCG:  Solving for Uz, Initial residual = 0.0623093687988, Final residual = 0.000169831880775, No Iterations 1
GAMG:  Solving for p, Initial residual = 0.084644666227, Final residual = 0.042212870452, No Iterations 202
time step continuity errors : sum local = 5.479583785e-05, global = 2.12931115632e-08, cumulative = 2.59693279146e-09
ExecutionTime = 36.17 s  ClockTime = 36 s

Time = 20

DILUPBiCG:  Solving for Ux, Initial residual = 0.0106453009579, Final residual = 1.610070209e-05, No Iterations 1
DILUPBiCG:  Solving for Uy, Initial residual = 0.0248190574088, Final residual = 6.01059880409e-05, No Iterations 1
DILUPBiCG:  Solving for Uz, Initial residual = 0.053563529067, Final residual = 0.000149556274633, No Iterations 1
GAMG:  Solving for p, Initial residual = 0.0781991788874, Final residual = 0.0390434594596, No Iterations 222
time step continuity errors : sum local = 5.40712294141e-05, global = 8.06138009743e-08, cumulative = 8.32107337657e-08
ExecutionTime = 37.2 s  ClockTime = 37 s

Time = 21

DILUPBiCG:  Solving for Ux, Initial residual = 0.0101556708, Final residual = 1.55637804076e-05, No Iterations 1
DILUPBiCG:  Solving for Uy, Initial residual = 0.0245546414032, Final residual = 5.92622814356e-05, No Iterations 1
DILUPBiCG:  Solving for Uz, Initial residual = 0.045535923236, Final residual = 0.000129548325661, No Iterations 1
GAMG:  Solving for p, Initial residual = 0.0718906015808, Final residual = 0.0359236012568, No Iterations 272
time step continuity errors : sum local = 5.1094565833e-05, global = 7.44685067225e-08, cumulative = 1.57679240488e-07
ExecutionTime = 38.45 s  ClockTime = 39 s

Time = 22

DILUPBiCG:  Solving for Ux, Initial residual = 0.00962526845449, Final residual = 1.47101515699e-05, No Iterations 1
DILUPBiCG:  Solving for Uy, Initial residual = 0.0245746256289, Final residual = 5.85397364139e-05, No Iterations 1
DILUPBiCG:  Solving for Uz, Initial residual = 0.0436560756346, Final residual = 0.000125868067051, No Iterations 1
GAMG:  Solving for p, Initial residual = 0.0634850820723, Final residual = 0.0316702072486, No Iterations 300
time step continuity errors : sum local = 4.44738555694e-05, global = 3.22923773596e-08, cumulative = 1.89971617848e-07
ExecutionTime = 39.82 s  ClockTime = 40 s

Time = 23

DILUPBiCG:  Solving for Ux, Initial residual = 0.00938512331813, Final residual = 1.42694794239e-05, No Iterations 1
DILUPBiCG:  Solving for Uy, Initial residual = 0.0235067813866, Final residual = 5.56751594933e-05, No Iterations 1
DILUPBiCG:  Solving for Uz, Initial residual = 0.0388522881266, Final residual = 0.000120049290179, No Iterations 1
GAMG:  Solving for p, Initial residual = 0.0644550114988, Final residual = 0.0321401335944, No Iterations 318
time step continuity errors : sum local = 4.42161686961e-05, global = -1.47329239716e-08, cumulative = 1.75238693876e-07
ExecutionTime = 41.27 s  ClockTime = 42 s

Time = 24

DILUPBiCG:  Solving for Ux, Initial residual = 0.00918267091535, Final residual = 1.39685521003e-05, No Iterations 1
DILUPBiCG:  Solving for Uy, Initial residual = 0.0245264111152, Final residual = 5.78956868117e-05, No Iterations 1
DILUPBiCG:  Solving for Uz, Initial residual = 0.0334723040129, Final residual = 9.75288283003e-05, No Iterations 1
GAMG:  Solving for p, Initial residual = 0.0588965540352, Final residual = 0.0294202153592, No Iterations 236
time step continuity errors : sum local = 3.93699088583e-05, global = -4.65890639541e-08, cumulative = 1.28649629922e-07
ExecutionTime = 42.38 s  ClockTime = 43 s

Time = 25

DILUPBiCG:  Solving for Ux, Initial residual = 0.00889805930746, Final residual = 1.33166827875e-05, No Iterations 1
DILUPBiCG:  Solving for Uy, Initial residual = 0.0238268944662, Final residual = 5.76412197132e-05, No Iterations 1
DILUPBiCG:  Solving for Uz, Initial residual = 0.0296646997611, Final residual = 9.09307571328e-05, No Iterations 1
GAMG:  Solving for p, Initial residual = 0.0498705898596, Final residual = 0.0248502513007, No Iterations 154
time step continuity errors : sum local = 3.23930271467e-05, global = -7.37138746078e-08, cumulative = 5.49357553143e-08
ExecutionTime = 43.15 s  ClockTime = 43 s

Time = 26

DILUPBiCG:  Solving for Ux, Initial residual = 0.00852448952428, Final residual = 1.24232093373e-05, No Iterations 1
DILUPBiCG:  Solving for Uy, Initial residual = 0.0228506756628, Final residual = 5.4813331154e-05, No Iterations 1
DILUPBiCG:  Solving for Uz, Initial residual = 0.0289103163997, Final residual = 8.99135171579e-05, No Iterations 1
GAMG:  Solving for p, Initial residual = 0.0482122960204, Final residual = 0.0240848361848, No Iterations 286
time step continuity errors : sum local = 3.06769517768e-05, global = -2.85040030863e-08, cumulative = 2.6431752228e-08
ExecutionTime = 44.53 s  ClockTime = 45 s

Time = 27

DILUPBiCG:  Solving for Ux, Initial residual = 0.00801184099578, Final residual = 1.17813372491e-05, No Iterations 1
DILUPBiCG:  Solving for Uy, Initial residual = 0.0210062818286, Final residual = 5.03947977196e-05, No Iterations 1
DILUPBiCG:  Solving for Uz, Initial residual = 0.0275124864372, Final residual = 8.54367097635e-05, No Iterations 1
GAMG:  Solving for p, Initial residual = 0.0481165631016, Final residual = 0.0240194831398, No Iterations 350
time step continuity errors : sum local = 2.88590122856e-05, global = 4.62190512978e-09, cumulative = 3.10536573578e-08
ExecutionTime = 46.24 s  ClockTime = 47 s

Time = 28

DILUPBiCG:  Solving for Ux, Initial residual = 0.00740015872699, Final residual = 1.09108002383e-05, No Iterations 1
DILUPBiCG:  Solving for Uy, Initial residual = 0.0200990727053, Final residual = 4.85144151276e-05, No Iterations 1
DILUPBiCG:  Solving for Uz, Initial residual = 0.0213967042887, Final residual = 7.52897243371e-05, No Iterations 1
GAMG:  Solving for p, Initial residual = 0.05468728571, Final residual = 0.0273000789714, No Iterations 400
time step continuity errors : sum local = 3.06591019252e-05, global = 2.11897050092e-08, cumulative = 5.22433623669e-08
ExecutionTime = 47.97 s  ClockTime = 48 s

Time = 29

DILUPBiCG:  Solving for Ux, Initial residual = 0.0069015358826, Final residual = 1.0175749026e-05, No Iterations 1
DILUPBiCG:  Solving for Uy, Initial residual = 0.0197570913518, Final residual = 4.80882132511e-05, No Iterations 1
DILUPBiCG:  Solving for Uz, Initial residual = 0.018566848158, Final residual = 6.13433095233e-05, No Iterations 1
GAMG:  Solving for p, Initial residual = 0.0514356155408, Final residual = 0.0257133669055, No Iterations 314
time step continuity errors : sum local = 2.73087183197e-05, global = 2.80764492131e-08, cumulative = 8.03198115801e-08
ExecutionTime = 49.39 s  ClockTime = 50 s

Time = 30

DILUPBiCG:  Solving for Ux, Initial residual = 0.00675649567995, Final residual = 9.97520349468e-06, No Iterations 1
DILUPBiCG:  Solving for Uy, Initial residual = 0.0198613305702, Final residual = 4.89810760952e-05, No Iterations 1
DILUPBiCG:  Solving for Uz, Initial residual = 0.0194862123461, Final residual = 6.4638204159e-05, No Iterations 1
GAMG:  Solving for p, Initial residual = 0.0380318560608, Final residual = 0.0189807078119, No Iterations 142
time step continuity errors : sum local = 1.96268914884e-05, global = 2.22165143074e-08, cumulative = 1.02536325887e-07
ExecutionTime = 50.16 s  ClockTime = 50 s

Time = 31

DILUPBiCG:  Solving for Ux, Initial residual = 0.00656062532033, Final residual = 9.30555999353e-06, No Iterations 1
DILUPBiCG:  Solving for Uy, Initial residual = 0.0196060403486, Final residual = 4.84761502924e-05, No Iterations 1
DILUPBiCG:  Solving for Uz, Initial residual = 0.0186300236713, Final residual = 6.58013559019e-05, No Iterations 1
GAMG:  Solving for p, Initial residual = 0.0345071679526, Final residual = 0.0172522880112, No Iterations 219
time step continuity errors : sum local = 1.7805065933e-05, global = 2.21725355722e-09, cumulative = 1.04753579445e-07
ExecutionTime = 51.23 s  ClockTime = 51 s

Time = 32

DILUPBiCG:  Solving for Ux, Initial residual = 0.00628829859919, Final residual = 8.97718919278e-06, No Iterations 1
DILUPBiCG:  Solving for Uy, Initial residual = 0.0192266307828, Final residual = 4.78906620849e-05, No Iterations 1
DILUPBiCG:  Solving for Uz, Initial residual = 0.016297352648, Final residual = 5.79318570245e-05, No Iterations 1
GAMG:  Solving for p, Initial residual = 0.0349668828622, Final residual = 0.0174432810973, No Iterations 372
time step continuity errors : sum local = 1.83505960638e-05, global = -6.26987069412e-09, cumulative = 9.84837087506e-08
ExecutionTime = 52.88 s  ClockTime = 53 s

Time = 33

DILUPBiCG:  Solving for Ux, Initial residual = 0.0060933463793, Final residual = 8.70100754606e-06, No Iterations 1
DILUPBiCG:  Solving for Uy, Initial residual = 0.0191836702531, Final residual = 4.69009709263e-05, No Iterations 1
DILUPBiCG:  Solving for Uz, Initial residual = 0.0137301874394, Final residual = 4.94550878068e-05, No Iterations 1
GAMG:  Solving for p, Initial residual = 0.0377413078142, Final residual = 0.0188436882594, No Iterations 420
time step continuity errors : sum local = 2.06326574774e-05, global = -8.82456197203e-09, cumulative = 8.96591467785e-08
ExecutionTime = 54.71 s  ClockTime = 55 s

Time = 34

DILUPBiCG:  Solving for Ux, Initial residual = 0.00604143882482, Final residual = 8.73253094561e-06, No Iterations 1
DILUPBiCG:  Solving for Uy, Initial residual = 0.0191600122208, Final residual = 4.75634078387e-05, No Iterations 1
DILUPBiCG:  Solving for Uz, Initial residual = 0.0122012057481, Final residual = 4.49328978869e-05, No Iterations 1
GAMG:  Solving for p, Initial residual = 0.0332555513551, Final residual = 0.0165996439441, No Iterations 362
time step continuity errors : sum local = 1.86582685819e-05, global = -6.27408221038e-09, cumulative = 8.33850645682e-08
ExecutionTime = 56.33 s  ClockTime = 57 s

Time = 35

DILUPBiCG:  Solving for Ux, Initial residual = 0.00597441971668, Final residual = 8.63964778827e-06, No Iterations 1
DILUPBiCG:  Solving for Uy, Initial residual = 0.0187390012246, Final residual = 4.60762541863e-05, No Iterations 1
DILUPBiCG:  Solving for Uz, Initial residual = 0.0120327570106, Final residual = 4.56795868094e-05, No Iterations 1
GAMG:  Solving for p, Initial residual = 0.0235282323126, Final residual = 0.0117263555984, No Iterations 148
time step continuity errors : sum local = 1.30791866636e-05, global = 3.26171501508e-09, cumulative = 8.66467795833e-08
ExecutionTime = 57.11 s  ClockTime = 57 s

Time = 36

DILUPBiCG:  Solving for Ux, Initial residual = 0.00581183151543, Final residual = 7.93701997165e-06, No Iterations 1
DILUPBiCG:  Solving for Uy, Initial residual = 0.0181212668242, Final residual = 4.45523298129e-05, No Iterations 1
DILUPBiCG:  Solving for Uz, Initial residual = 0.0120508418477, Final residual = 4.60012858671e-05, No Iterations 1
GAMG:  Solving for p, Initial residual = 0.0220665150775, Final residual = 0.0110122558408, No Iterations 251
time step continuity errors : sum local = 1.20790983024e-05, global = 7.80786919493e-09, cumulative = 9.44546487782e-08
ExecutionTime = 58.28 s  ClockTime = 59 s

Time = 37

DILUPBiCG:  Solving for Ux, Initial residual = 0.00558923261662, Final residual = 7.7937820262e-06, No Iterations 1
DILUPBiCG:  Solving for Uy, Initial residual = 0.0181815850392, Final residual = 4.4508798756e-05, No Iterations 1
DILUPBiCG:  Solving for Uz, Initial residual = 0.0109617143105, Final residual = 4.23214764847e-05, No Iterations 1
GAMG:  Solving for p, Initial residual = 0.0247785002303, Final residual = 0.0123758406093, No Iterations 434
time step continuity errors : sum local = 1.30545211991e-05, global = 7.34360948987e-09, cumulative = 1.01798258268e-07
ExecutionTime = 60.14 s  ClockTime = 60 s

Time = 38

DILUPBiCG:  Solving for Ux, Initial residual = 0.00529930617677, Final residual = 7.56220128742e-06, No Iterations 1
DILUPBiCG:  Solving for Uy, Initial residual = 0.0172566176019, Final residual = 4.24368014324e-05, No Iterations 1
DILUPBiCG:  Solving for Uz, Initial residual = 0.00928997528414, Final residual = 3.83011022162e-05, No Iterations 1
GAMG:  Solving for p, Initial residual = 0.026950680653, Final residual = 0.0134578046828, No Iterations 432
time step continuity errors : sum local = 1.31883943965e-05, global = 5.25332120826e-09, cumulative = 1.07051579476e-07
ExecutionTime = 62.05 s  ClockTime = 62 s

Time = 39

DILUPBiCG:  Solving for Ux, Initial residual = 0.00506335852159, Final residual = 7.2797757909e-06, No Iterations 1
DILUPBiCG:  Solving for Uy, Initial residual = 0.0167564689193, Final residual = 4.12315139429e-05, No Iterations 1
DILUPBiCG:  Solving for Uz, Initial residual = 0.00881919387201, Final residual = 3.61409177854e-05, No Iterations 1
GAMG:  Solving for p, Initial residual = 0.0262023300117, Final residual = 0.0130941592752, No Iterations 374
time step continuity errors : sum local = 1.22201236118e-05, global = 6.39394919697e-10, cumulative = 1.07690974396e-07
ExecutionTime = 63.69 s  ClockTime = 64 s

Time = 40

DILUPBiCG:  Solving for Ux, Initial residual = 0.00490291311015, Final residual = 6.97419293009e-06, No Iterations 1
DILUPBiCG:  Solving for Uy, Initial residual = 0.0167971983132, Final residual = 4.20541591013e-05, No Iterations 1
DILUPBiCG:  Solving for Uz, Initial residual = 0.00854110068322, Final residual = 3.52109736417e-05, No Iterations 1
GAMG:  Solving for p, Initial residual = 0.0218216580573, Final residual = 0.0109075944554, No Iterations 224
time step continuity errors : sum local = 1.00694008327e-05, global = -4.80542105048e-09, cumulative = 1.02885553346e-07
ExecutionTime = 64.74 s  ClockTime = 65 s

Time = 41

DILUPBiCG:  Solving for Ux, Initial residual = 0.00477607280667, Final residual = 6.66517985113e-06, No Iterations 1
DILUPBiCG:  Solving for Uy, Initial residual = 0.0166553472737, Final residual = 4.21303073664e-05, No Iterations 1
DILUPBiCG:  Solving for Uz, Initial residual = 0.00809446995162, Final residual = 3.51288594345e-05, No Iterations 1
GAMG:  Solving for p, Initial residual = 0.0187026911411, Final residual = 0.00932651403911, No Iterations 199
time step continuity errors : sum local = 8.68163444712e-06, global = -6.39884484079e-09, cumulative = 9.64867085047e-08
ExecutionTime = 65.88 s  ClockTime = 66 s

Time = 42

DILUPBiCG:  Solving for Ux, Initial residual = 0.00465985056708, Final residual = 6.45557494511e-06, No Iterations 1
DILUPBiCG:  Solving for Uy, Initial residual = 0.0173187948386, Final residual = 4.3159457085e-05, No Iterations 1
DILUPBiCG:  Solving for Uz, Initial residual = 0.00734357890061, Final residual = 3.29803081144e-05, No Iterations 1
GAMG:  Solving for p, Initial residual = 0.0171854946496, Final residual = 0.00859074989503, No Iterations 336
time step continuity errors : sum local = 8.12373205638e-06, global = -4.33264139917e-09, cumulative = 9.21540671056e-08
ExecutionTime = 67.41 s  ClockTime = 68 s

Time = 43

DILUPBiCG:  Solving for Ux, Initial residual = 0.00455742520709, Final residual = 6.31561838067e-06, No Iterations 1
DILUPBiCG:  Solving for Uy, Initial residual = 0.0170443407937, Final residual = 4.21619051526e-05, No Iterations 1
DILUPBiCG:  Solving for Uz, Initial residual = 0.00691265914051, Final residual = 3.1484876206e-05, No Iterations 1
GAMG:  Solving for p, Initial residual = 0.0178208788251, Final residual = 0.00888913596314, No Iterations 404
time step continuity errors : sum local = 8.59341770803e-06, global = -4.60911978471e-10, cumulative = 9.16931551271e-08
ExecutionTime = 69.2 s  ClockTime = 69 s

Time = 44

DILUPBiCG:  Solving for Ux, Initial residual = 0.0044681655774, Final residual = 6.21220260715e-06, No Iterations 1
DILUPBiCG:  Solving for Uy, Initial residual = 0.0167732398493, Final residual = 4.09343061226e-05, No Iterations 1
DILUPBiCG:  Solving for Uz, Initial residual = 0.00650567833856, Final residual = 2.97387520093e-05, No Iterations 1
GAMG:  Solving for p, Initial residual = 0.0185215188688, Final residual = 0.00924406580567, No Iterations 422
time step continuity errors : sum local = 9.01856360011e-06, global = 3.37721845977e-09, cumulative = 9.50703735868e-08
ExecutionTime = 71.04 s  ClockTime = 71 s

Time = 45

DILUPBiCG:  Solving for Ux, Initial residual = 0.00438743941139, Final residual = 6.03700966517e-06, No Iterations 1
DILUPBiCG:  Solving for Uy, Initial residual = 0.0163796253819, Final residual = 4.07607822316e-05, No Iterations 1
DILUPBiCG:  Solving for Uz, Initial residual = 0.00595361472323, Final residual = 2.84808621071e-05, No Iterations 1
GAMG:  Solving for p, Initial residual = 0.0154534837889, Final residual = 0.00771034393436, No Iterations 278
time step continuity errors : sum local = 7.43375653321e-06, global = 7.18230534868e-09, cumulative = 1.02252678936e-07
ExecutionTime = 72.35 s  ClockTime = 73 s

Time = 46

DILUPBiCG:  Solving for Ux, Initial residual = 0.0042926763348, Final residual = 5.79721745524e-06, No Iterations 1
DILUPBiCG:  Solving for Uy, Initial residual = 0.0158441901774, Final residual = 3.99343418936e-05, No Iterations 1
DILUPBiCG:  Solving for Uz, Initial residual = 0.00578409340081, Final residual = 2.8486029487e-05, No Iterations 1
GAMG:  Solving for p, Initial residual = 0.0123871248446, Final residual = 0.00618756012147, No Iterations 192
time step continuity errors : sum local = 5.84917450364e-06, global = 7.17633393773e-09, cumulative = 1.09429012873e-07
ExecutionTime = 73.3 s  ClockTime = 74 s

Time = 47

DILUPBiCG:  Solving for Ux, Initial residual = 0.00418788727232, Final residual = 5.57879900356e-06, No Iterations 1
DILUPBiCG:  Solving for Uy, Initial residual = 0.0156974765996, Final residual = 3.98374036481e-05, No Iterations 1
DILUPBiCG:  Solving for Uz, Initial residual = 0.00568538443972, Final residual = 2.87851217829e-05, No Iterations 1
GAMG:  Solving for p, Initial residual = 0.0121431327283, Final residual = 0.00606156781982, No Iterations 358
time step continuity errors : sum local = 5.63088878849e-06, global = 2.88245813545e-09, cumulative = 1.12311471009e-07
ExecutionTime = 74.87 s  ClockTime = 75 s

Time = 48

DILUPBiCG:  Solving for Ux, Initial residual = 0.00406794497703, Final residual = 5.58087276932e-06, No Iterations 1
DILUPBiCG:  Solving for Uy, Initial residual = 0.0155340215281, Final residual = 3.88954315677e-05, No Iterations 1
DILUPBiCG:  Solving for Uz, Initial residual = 0.00533533579801, Final residual = 2.75207016779e-05, No Iterations 1
GAMG:  Solving for p, Initial residual = 0.0136128408018, Final residual = 0.00680578255333, No Iterations 402
time step continuity errors : sum local = 6.16258111489e-06, global = -6.35529168684e-11, cumulative = 1.12247918092e-07
ExecutionTime = 76.63 s  ClockTime = 77 s

Time = 49

DILUPBiCG:  Solving for Ux, Initial residual = 0.00395067086051, Final residual = 5.4310025893e-06, No Iterations 1
DILUPBiCG:  Solving for Uy, Initial residual = 0.0154555731811, Final residual = 3.90698331841e-05, No Iterations 1
DILUPBiCG:  Solving for Uz, Initial residual = 0.00472149032372, Final residual = 2.52898749709e-05, No Iterations 1
GAMG:  Solving for p, Initial residual = 0.0146134749217, Final residual = 0.00730137011981, No Iterations 424
time step continuity errors : sum local = 6.48247924492e-06, global = -1.9322519959e-09, cumulative = 1.10315666096e-07
ExecutionTime = 78.46 s  ClockTime = 79 s

Time = 50

DILUPBiCG:  Solving for Ux, Initial residual = 0.00384858053241, Final residual = 5.29710795547e-06, No Iterations 1
DILUPBiCG:  Solving for Uy, Initial residual = 0.0150508306392, Final residual = 3.79338222641e-05, No Iterations 1
DILUPBiCG:  Solving for Uz, Initial residual = 0.00450325121866, Final residual = 2.53176682836e-05, No Iterations 1
GAMG:  Solving for p, Initial residual = 0.0123680315329, Final residual = 0.0061837125888, No Iterations 286
time step continuity errors : sum local = 5.42497598607e-06, global = -2.5696915563e-09, cumulative = 1.0774597454e-07
ExecutionTime = 79.76 s  ClockTime = 80 s

Time = 51

DILUPBiCG:  Solving for Ux, Initial residual = 0.00376131215004, Final residual = 5.04916917612e-06, No Iterations 1
DILUPBiCG:  Solving for Uy, Initial residual = 0.0148485005578, Final residual = 3.74421034386e-05, No Iterations 1
DILUPBiCG:  Solving for Uz, Initial residual = 0.00457802935873, Final residual = 2.63152030532e-05, No Iterations 1
GAMG:  Solving for p, Initial residual = 0.0093685610097, Final residual = 0.00467395335104, No Iterations 74
time step continuity errors : sum local = 4.07827064263e-06, global = -4.02799081549e-10, cumulative = 1.07343175458e-07
ExecutionTime = 80.24 s  ClockTime = 81 s

Time = 52

DILUPBiCG:  Solving for Ux, Initial residual = 0.0036787180235, Final residual = 4.99259243083e-06, No Iterations 1
DILUPBiCG:  Solving for Uy, Initial residual = 0.0145188365326, Final residual = 3.84118481162e-05, No Iterations 1
DILUPBiCG:  Solving for Uz, Initial residual = 0.00436937771539, Final residual = 2.54807310775e-05, No Iterations 1
GAMG:  Solving for p, Initial residual = 0.00901238387313, Final residual = 0.00449407941098, No Iterations 207
time step continuity errors : sum local = 3.9144925909e-06, global = 1.74482157191e-09, cumulative = 1.0908799703e-07
ExecutionTime = 81.22 s  ClockTime = 81 s

Time = 53

DILUPBiCG:  Solving for Ux, Initial residual = 0.00359911889575, Final residual = 4.90190780535e-06, No Iterations 1
DILUPBiCG:  Solving for Uy, Initial residual = 0.0143428575353, Final residual = 3.68510541609e-05, No Iterations 1
DILUPBiCG:  Solving for Uz, Initial residual = 0.00408830161077, Final residual = 2.43077662278e-05, No Iterations 1
GAMG:  Solving for p, Initial residual = 0.00968440693863, Final residual = 0.00483807224677, No Iterations 354
time step continuity errors : sum local = 4.20628356093e-06, global = 2.20035395678e-09, cumulative = 1.11288350987e-07
ExecutionTime = 82.78 s  ClockTime = 83 s

Time = 54

DILUPBiCG:  Solving for Ux, Initial residual = 0.00352388009229, Final residual = 4.82889578471e-06, No Iterations 1
DILUPBiCG:  Solving for Uy, Initial residual = 0.0146710818142, Final residual = 3.68447216233e-05, No Iterations 1
DILUPBiCG:  Solving for Uz, Initial residual = 0.00372115221579, Final residual = 2.35935421322e-05, No Iterations 1
GAMG:  Solving for p, Initial residual = 0.0101970103974, Final residual = 0.00509783716534, No Iterations 412
time step continuity errors : sum local = 4.4219817545e-06, global = 2.09008204057e-09, cumulative = 1.13378433027e-07
ExecutionTime = 84.57 s  ClockTime = 85 s

Time = 55

DILUPBiCG:  Solving for Ux, Initial residual = 0.00345577081366, Final residual = 4.64131320596e-06, No Iterations 1
DILUPBiCG:  Solving for Uy, Initial residual = 0.0146151158463, Final residual = 3.6949161485e-05, No Iterations 1
DILUPBiCG:  Solving for Uz, Initial residual = 0.00365059392945, Final residual = 2.39073168448e-05, No Iterations 1
GAMG:  Solving for p, Initial residual = 0.0092187295673, Final residual = 0.0046035516546, No Iterations 318
time step continuity errors : sum local = 3.98274023518e-06, global = 1.63410778942e-09, cumulative = 1.15012540817e-07
ExecutionTime = 85.99 s  ClockTime = 86 s

Time = 56

DILUPBiCG:  Solving for Ux, Initial residual = 0.00339090297959, Final residual = 4.56016683372e-06, No Iterations 1
DILUPBiCG:  Solving for Uy, Initial residual = 0.014466497046, Final residual = 3.69586544233e-05, No Iterations 1
DILUPBiCG:  Solving for Uz, Initial residual = 0.00358124911133, Final residual = 2.42323385121e-05, No Iterations 1
GAMG:  Solving for p, Initial residual = 0.00717048728388, Final residual = 0.003574542451, No Iterations 88
time step continuity errors : sum local = 3.08071514572e-06, global = 1.26577176831e-09, cumulative = 1.16278312585e-07
ExecutionTime = 86.52 s  ClockTime = 87 s

Time = 57

DILUPBiCG:  Solving for Ux, Initial residual = 0.00332528826046, Final residual = 4.44866808447e-06, No Iterations 1
DILUPBiCG:  Solving for Uy, Initial residual = 0.013948509708, Final residual = 3.65699739106e-05, No Iterations 1
DILUPBiCG:  Solving for Uz, Initial residual = 0.00346852360961, Final residual = 2.41426488875e-05, No Iterations 1
GAMG:  Solving for p, Initial residual = 0.00702655663999, Final residual = 0.00350828527418, No Iterations 218
time step continuity errors : sum local = 3.01684451623e-06, global = 3.47940230362e-10, cumulative = 1.16626252815e-07
ExecutionTime = 87.57 s  ClockTime = 88 s

Time = 58

DILUPBiCG:  Solving for Ux, Initial residual = 0.00326016827247, Final residual = 4.36948810298e-06, No Iterations 1
DILUPBiCG:  Solving for Uy, Initial residual = 0.0142124249216, Final residual = 3.6082733275e-05, No Iterations 1
DILUPBiCG:  Solving for Uz, Initial residual = 0.00335934048446, Final residual = 2.42061852703e-05, No Iterations 1
GAMG:  Solving for p, Initial residual = 0.00701816403067, Final residual = 0.00350021832132, No Iterations 326
time step continuity errors : sum local = 2.98932203093e-06, global = -1.9814428885e-10, cumulative = 1.16428108527e-07
ExecutionTime = 89.04 s  ClockTime = 89 s

Time = 59

DILUPBiCG:  Solving for Ux, Initial residual = 0.00319405653456, Final residual = 4.27532245309e-06, No Iterations 1
DILUPBiCG:  Solving for Uy, Initial residual = 0.0140326701834, Final residual = 3.54027204107e-05, No Iterations 1
DILUPBiCG:  Solving for Uz, Initial residual = 0.00324912418161, Final residual = 2.47667831999e-05, No Iterations 1
GAMG:  Solving for p, Initial residual = 0.00721725966102, Final residual = 0.00360835466273, No Iterations 392
time step continuity errors : sum local = 3.04568019769e-06, global = -1.24269766077e-11, cumulative = 1.1641568155e-07
ExecutionTime = 90.84 s  ClockTime = 91 s

Time = 60

DILUPBiCG:  Solving for Ux, Initial residual = 0.00312894259408, Final residual = 4.2448963649e-06, No Iterations 1
DILUPBiCG:  Solving for Uy, Initial residual = 0.0139879704813, Final residual = 3.55417470073e-05, No Iterations 1
DILUPBiCG:  Solving for Uz, Initial residual = 0.00313693737936, Final residual = 2.49399192956e-05, No Iterations 1
GAMG:  Solving for p, Initial residual = 0.00722050692827, Final residual = 0.00360918737262, No Iterations 362
time step continuity errors : sum local = 3.00403102681e-06, global = 5.45515984899e-10, cumulative = 1.16961197535e-07
ExecutionTime = 92.49 s  ClockTime = 93 s

Time = 61

DILUPBiCG:  Solving for Ux, Initial residual = 0.00306717531557, Final residual = 4.15486587827e-06, No Iterations 1
DILUPBiCG:  Solving for Uy, Initial residual = 0.013970977734, Final residual = 3.55361332652e-05, No Iterations 1
DILUPBiCG:  Solving for Uz, Initial residual = 0.00304205214858, Final residual = 2.4891074527e-05, No Iterations 1
GAMG:  Solving for p, Initial residual = 0.00651746182113, Final residual = 0.00325008203997, No Iterations 246
time step continuity errors : sum local = 2.67363106822e-06, global = 1.43687932572e-09, cumulative = 1.18398076861e-07
ExecutionTime = 93.74 s  ClockTime = 94 s

Time = 62

DILUPBiCG:  Solving for Ux, Initial residual = 0.00300814833588, Final residual = 4.03898543157e-06, No Iterations 1
DILUPBiCG:  Solving for Uy, Initial residual = 0.0133849640665, Final residual = 3.39118565467e-05, No Iterations 1
DILUPBiCG:  Solving for Uz, Initial residual = 0.00291496195008, Final residual = 2.47271053346e-05, No Iterations 1
GAMG:  Solving for p, Initial residual = 0.00581880746023, Final residual = 0.00290825997035, No Iterations 160
time step continuity errors : sum local = 2.37525739507e-06, global = 2.72178915986e-09, cumulative = 1.2111986602e-07
ExecutionTime = 94.55 s  ClockTime = 95 s

Time = 63

DILUPBiCG:  Solving for Ux, Initial residual = 0.00295082872217, Final residual = 4.01700289066e-06, No Iterations 1
DILUPBiCG:  Solving for Uy, Initial residual = 0.0131919020506, Final residual = 3.40949229529e-05, No Iterations 1
DILUPBiCG:  Solving for Uz, Initial residual = 0.00279515972198, Final residual = 2.50437449765e-05, No Iterations 1
GAMG:  Solving for p, Initial residual = 0.0055959995219, Final residual = 0.00279252478561, No Iterations 199
time step continuity errors : sum local = 2.27132288605e-06, global = 1.21808423096e-09, cumulative = 1.22337950251e-07
ExecutionTime = 95.51 s  ClockTime = 96 s

Time = 64

DILUPBiCG:  Solving for Ux, Initial residual = 0.00289507159096, Final residual = 3.88405361829e-06, No Iterations 1
DILUPBiCG:  Solving for Uy, Initial residual = 0.0130198060046, Final residual = 3.33044732145e-05, No Iterations 1
DILUPBiCG:  Solving for Uz, Initial residual = 0.00274152272461, Final residual = 2.59535408796e-05, No Iterations 1
GAMG:  Solving for p, Initial residual = 0.00526372706317, Final residual = 0.00263142547092, No Iterations 212
time step continuity errors : sum local = 2.13086917055e-06, global = 1.91279042765e-09, cumulative = 1.24250740679e-07
ExecutionTime = 96.51 s  ClockTime = 97 s

Time = 65

DILUPBiCG:  Solving for Ux, Initial residual = 0.00284203332495, Final residual = 3.85850635298e-06, No Iterations 1
DILUPBiCG:  Solving for Uy, Initial residual = 0.0129994358057, Final residual = 3.35308814942e-05, No Iterations 1
DILUPBiCG:  Solving for Uz, Initial residual = 0.00260493970291, Final residual = 2.61455618492e-05, No Iterations 1
GAMG:  Solving for p, Initial residual = 0.00550696973875, Final residual = 0.00274777306363, No Iterations 322
time step continuity errors : sum local = 2.21861731429e-06, global = 8.59161923244e-10, cumulative = 1.25109902602e-07
ExecutionTime = 97.94 s  ClockTime = 98 s

Time = 66

DILUPBiCG:  Solving for Ux, Initial residual = 0.00279126994032, Final residual = 3.75657396773e-06, No Iterations 1
DILUPBiCG:  Solving for Uy, Initial residual = 0.013267896735, Final residual = 3.38924635988e-05, No Iterations 1
DILUPBiCG:  Solving for Uz, Initial residual = 0.00253305299044, Final residual = 2.66767244712e-05, No Iterations 1
GAMG:  Solving for p, Initial residual = 0.00533005256484, Final residual = 0.00266316127935, No Iterations 302
time step continuity errors : sum local = 2.1470463236e-06, global = 2.51469024545e-10, cumulative = 1.25361371627e-07
ExecutionTime = 99.29 s  ClockTime = 100 s

Time = 67

DILUPBiCG:  Solving for Ux, Initial residual = 0.00274277333743, Final residual = 3.69985903893e-06, No Iterations 1
DILUPBiCG:  Solving for Uy, Initial residual = 0.0131928098341, Final residual = 3.40251200965e-05, No Iterations 1
DILUPBiCG:  Solving for Uz, Initial residual = 0.00247234306048, Final residual = 2.7501137274e-05, No Iterations 1
GAMG:  Solving for p, Initial residual = 0.00470646402016, Final residual = 0.00234879294892, No Iterations 166
time step continuity errors : sum local = 1.89157400546e-06, global = -1.66096466098e-11, cumulative = 1.2534476198e-07
ExecutionTime = 100.12 s  ClockTime = 100 s

Time = 68

DILUPBiCG:  Solving for Ux, Initial residual = 0.00269596656853, Final residual = 3.6245016806e-06, No Iterations 1
DILUPBiCG:  Solving for Uy, Initial residual = 0.0126696404443, Final residual = 3.32052750317e-05, No Iterations 1
DILUPBiCG:  Solving for Uz, Initial residual = 0.00240496289761, Final residual = 2.8450711472e-05, No Iterations 1
GAMG:  Solving for p, Initial residual = 0.00440892183297, Final residual = 0.00220194899022, No Iterations 174
time step continuity errors : sum local = 1.77050956671e-06, global = 1.78245426786e-10, cumulative = 1.25523007407e-07
ExecutionTime = 101.01 s  ClockTime = 101 s

Time = 69

DILUPBiCG:  Solving for Ux, Initial residual = 0.00265042831841, Final residual = 3.56906881164e-06, No Iterations 1
DILUPBiCG:  Solving for Uy, Initial residual = 0.012687095465, Final residual = 3.265820062e-05, No Iterations 1
DILUPBiCG:  Solving for Uz, Initial residual = 0.00242168986032, Final residual = 3.05330643222e-05, No Iterations 1
GAMG:  Solving for p, Initial residual = 0.00412894341514, Final residual = 0.00206239507682, No Iterations 216
time step continuity errors : sum local = 1.65231217818e-06, global = 5.50198033075e-10, cumulative = 1.2607320544e-07
ExecutionTime = 102.03 s  ClockTime = 102 s

Time = 70

DILUPBiCG:  Solving for Ux, Initial residual = 0.00260595442584, Final residual = 3.52932429697e-06, No Iterations 1
DILUPBiCG:  Solving for Uy, Initial residual = 0.0130930171309, Final residual = 3.35993805977e-05, No Iterations 1
DILUPBiCG:  Solving for Uz, Initial residual = 0.00239333764414, Final residual = 3.26814028844e-05, No Iterations 1
GAMG:  Solving for p, Initial residual = 0.00431811859145, Final residual = 0.00215519503815, No Iterations 344
time step continuity errors : sum local = 1.71507198076e-06, global = 6.26701226328e-10, cumulative = 1.26699906666e-07
ExecutionTime = 103.61 s  ClockTime = 104 s

Time = 71

DILUPBiCG:  Solving for Ux, Initial residual = 0.0025628853261, Final residual = 3.46523917861e-06, No Iterations 1
DILUPBiCG:  Solving for Uy, Initial residual = 0.0130544453871, Final residual = 3.30684179103e-05, No Iterations 1
DILUPBiCG:  Solving for Uz, Initial residual = 0.00229034597768, Final residual = 3.38787821355e-05, No Iterations 1
GAMG:  Solving for p, Initial residual = 0.00447538441804, Final residual = 0.00223271299279, No Iterations 338
time step continuity errors : sum local = 1.75751456933e-06, global = 8.49205456206e-10, cumulative = 1.27549112123e-07
ExecutionTime = 105.14 s  ClockTime = 105 s

Time = 72

DILUPBiCG:  Solving for Ux, Initial residual = 0.00252077773734, Final residual = 3.40026729513e-06, No Iterations 1
DILUPBiCG:  Solving for Uy, Initial residual = 0.0127694838285, Final residual = 3.27800784503e-05, No Iterations 1
DILUPBiCG:  Solving for Uz, Initial residual = 0.00224622494824, Final residual = 3.59458074213e-05, No Iterations 1
GAMG:  Solving for p, Initial residual = 0.00428799136113, Final residual = 0.00214194423238, No Iterations 288
time step continuity errors : sum local = 1.66968574667e-06, global = 9.46113129528e-10, cumulative = 1.28495225252e-07
ExecutionTime = 106.44 s  ClockTime = 107 s

Time = 73

DILUPBiCG:  Solving for Ux, Initial residual = 0.00247968337966, Final residual = 3.37138246027e-06, No Iterations 1
DILUPBiCG:  Solving for Uy, Initial residual = 0.0124203137259, Final residual = 3.25387346828e-05, No Iterations 1
DILUPBiCG:  Solving for Uz, Initial residual = 0.00216206641629, Final residual = 3.77484875282e-05, No Iterations 1
GAMG:  Solving for p, Initial residual = 0.00387713253961, Final residual = 0.00193294873953, No Iterations 182
time step continuity errors : sum local = 1.49700099003e-06, global = 1.13976736633e-09, cumulative = 1.29634992619e-07
ExecutionTime = 107.34 s  ClockTime = 108 s

Time = 74

DILUPBiCG:  Solving for Ux, Initial residual = 0.00243901892674, Final residual = 3.28900740595e-06, No Iterations 1
DILUPBiCG:  Solving for Uy, Initial residual = 0.0121414943728, Final residual = 3.20784706455e-05, No Iterations 1
DILUPBiCG:  Solving for Uz, Initial residual = 0.00211685813325, Final residual = 3.95450559133e-05, No Iterations 1
GAMG:  Solving for p, Initial residual = 0.00351656992705, Final residual = 0.00175492429945, No Iterations 121
time step continuity errors : sum local = 1.35455683083e-06, global = 1.52412040679e-09, cumulative = 1.31159113025e-07
ExecutionTime = 108.01 s  ClockTime = 108 s

Time = 75

DILUPBiCG:  Solving for Ux, Initial residual = 0.002399140092, Final residual = 3.22478182763e-06, No Iterations 1
DILUPBiCG:  Solving for Uy, Initial residual = 0.0119446993433, Final residual = 3.15652142084e-05, No Iterations 1
DILUPBiCG:  Solving for Uz, Initial residual = 0.00206943644612, Final residual = 4.33965645314e-05, No Iterations 1
GAMG:  Solving for p, Initial residual = 0.0032117857562, Final residual = 0.00160032759465, No Iterations 106
time step continuity errors : sum local = 1.23250007609e-06, global = 1.93807301895e-09, cumulative = 1.33097186044e-07
ExecutionTime = 108.61 s  ClockTime = 109 s

Time = 76

DILUPBiCG:  Solving for Ux, Initial residual = 0.00236036159544, Final residual = 3.20249126184e-06, No Iterations 1
DILUPBiCG:  Solving for Uy, Initial residual = 0.0118049701279, Final residual = 3.11375542846e-05, No Iterations 1
DILUPBiCG:  Solving for Uz, Initial residual = 0.00201991603089, Final residual = 4.95039660265e-05, No Iterations 1
GAMG:  Solving for p, Initial residual = 0.00318745847387, Final residual = 0.00159102333809, No Iterations 120
time step continuity errors : sum local = 1.2226530768e-06, global = 2.00554849008e-09, cumulative = 1.35102734534e-07
ExecutionTime = 109.26 s  ClockTime = 110 s

Time = 77

DILUPBiCG:  Solving for Ux, Initial residual = 0.00232259734711, Final residual = 3.19030171099e-06, No Iterations 1
DILUPBiCG:  Solving for Uy, Initial residual = 0.0118571647263, Final residual = 3.11062555366e-05, No Iterations 1
DILUPBiCG:  Solving for Uz, Initial residual = 0.00197144077795, Final residual = 5.71210863414e-05, No Iterations 1
GAMG:  Solving for p, Initial residual = 0.00348297431343, Final residual = 0.00173808910782, No Iterations 232
time step continuity errors : sum local = 1.33243786887e-06, global = 1.19624951352e-09, cumulative = 1.36298984048e-07
ExecutionTime = 110.35 s  ClockTime = 111 s

Time = 78

DILUPBiCG:  Solving for Ux, Initial residual = 0.00228601838686, Final residual = 3.13628223263e-06, No Iterations 1
DILUPBiCG:  Solving for Uy, Initial residual = 0.0117999298513, Final residual = 3.05963920936e-05, No Iterations 1
DILUPBiCG:  Solving for Uz, Initial residual = 0.00194359971228, Final residual = 6.54382853824e-05, No Iterations 1
GAMG:  Solving for p, Initial residual = 0.00354049108289, Final residual = 0.00176922769812, No Iterations 252
time step continuity errors : sum local = 1.35061852413e-06, global = 8.71860121657e-10, cumulative = 1.3717084417e-07
ExecutionTime = 111.52 s  ClockTime = 112 s

Time = 79

DILUPBiCG:  Solving for Ux, Initial residual = 0.0022503937916, Final residual = 3.06348366586e-06, No Iterations 1
DILUPBiCG:  Solving for Uy, Initial residual = 0.0117478839597, Final residual = 3.08926262888e-05, No Iterations 1
DILUPBiCG:  Solving for Uz, Initial residual = 0.00191562019628, Final residual = 7.47913899951e-05, No Iterations 1
GAMG:  Solving for p, Initial residual = 0.00332415294931, Final residual = 0.00166000052223, No Iterations 174
time step continuity errors : sum local = 1.26213021142e-06, global = 7.76391871537e-10, cumulative = 1.37947236041e-07
ExecutionTime = 112.39 s  ClockTime = 113 s

Time = 80

DILUPBiCG:  Solving for Ux, Initial residual = 0.00221577406876, Final residual = 3.00921378324e-06, No Iterations 1
DILUPBiCG:  Solving for Uy, Initial residual = 0.0116329867788, Final residual = 3.09817130038e-05, No Iterations 1
DILUPBiCG:  Solving for Uz, Initial residual = 0.00187635558641, Final residual = 8.89868848369e-05, No Iterations 1
GAMG:  Solving for p, Initial residual = 0.00305201490531, Final residual = 0.00152117033914, No Iterations 92
time step continuity errors : sum local = 1.15336699857e-06, global = 1.04532045998e-09, cumulative = 1.38992556501e-07
ExecutionTime = 112.94 s  ClockTime = 113 s

Time = 81

DILUPBiCG:  Solving for Ux, Initial residual = 0.00218203281843, Final residual = 2.98261269738e-06, No Iterations 1
DILUPBiCG:  Solving for Uy, Initial residual = 0.0115325927863, Final residual = 3.01792477778e-05, No Iterations 1
DILUPBiCG:  Solving for Uz, Initial residual = 0.00188865282798, Final residual = 0.000112165959971, No Iterations 1
GAMG:  Solving for p, Initial residual = 0.00284998007351, Final residual = 0.00141780579078, No Iterations 120
time step continuity errors : sum local = 1.07284117529e-06, global = 1.30843288398e-09, cumulative = 1.40300989385e-07
ExecutionTime = 113.6 s  ClockTime = 114 s

Time = 82

DILUPBiCG:  Solving for Ux, Initial residual = 0.00214973019451, Final residual = 2.92671363867e-06, No Iterations 1
DILUPBiCG:  Solving for Uy, Initial residual = 0.0117119209715, Final residual = 3.04318552564e-05, No Iterations 1
DILUPBiCG:  Solving for Uz, Initial residual = 0.00188028885102, Final residual = 0.000151890816512, No Iterations 1
GAMG:  Solving for p, Initial residual = 0.00288738999275, Final residual = 0.00143874521164, No Iterations 222
time step continuity errors : sum local = 1.08497851559e-06, global = 1.04188483346e-09, cumulative = 1.41342874218e-07
ExecutionTime = 114.66 s  ClockTime = 115 s

Time = 83

DILUPBiCG:  Solving for Ux, Initial residual = 0.00211934118881, Final residual = 2.91198462266e-06, No Iterations 1
DILUPBiCG:  Solving for Uy, Initial residual = 0.0117415663256, Final residual = 3.04254339548e-05, No Iterations 1
DILUPBiCG:  Solving for Uz, Initial residual = 0.00186883846023, Final residual = 2.69449334001e-08, No Iterations 2
GAMG:  Solving for p, Initial residual = 0.00305520985202, Final residual = 0.001523686164, No Iterations 278
time step continuity errors : sum local = 1.14164054161e-06, global = 7.98869009133e-10, cumulative = 1.42141743228e-07
ExecutionTime = 115.94 s  ClockTime = 116 s

Time = 84

DILUPBiCG:  Solving for Ux, Initial residual = 0.00208997492001, Final residual = 2.86089095514e-06, No Iterations 1
DILUPBiCG:  Solving for Uy, Initial residual = 0.0116834030534, Final residual = 3.03355805036e-05, No Iterations 1
DILUPBiCG:  Solving for Uz, Initial residual = 0.00175926459814, Final residual = 2.52267488833e-08, No Iterations 2
GAMG:  Solving for p, Initial residual = 0.00302797524547, Final residual = 0.00151053707102, No Iterations 234
time step continuity errors : sum local = 1.12362854278e-06, global = 6.76930968302e-10, cumulative = 1.42818674196e-07
ExecutionTime = 117.05 s  ClockTime = 117 s

Time = 85

DILUPBiCG:  Solving for Ux, Initial residual = 0.002060422519, Final residual = 2.84094836746e-06, No Iterations 1
DILUPBiCG:  Solving for Uy, Initial residual = 0.0114006601086, Final residual = 2.94665096285e-05, No Iterations 1
DILUPBiCG:  Solving for Uz, Initial residual = 0.00162258522928, Final residual = 7.65142512759e-05, No Iterations 1
GAMG:  Solving for p, Initial residual = 0.00295688935904, Final residual = 0.00147613623662, No Iterations 186
time step continuity errors : sum local = 1.09277815941e-06, global = 5.50540820137e-10, cumulative = 1.43369215016e-07
ExecutionTime = 117.97 s  ClockTime = 118 s

Time = 86

DILUPBiCG:  Solving for Ux, Initial residual = 0.00203089010161, Final residual = 2.78411975553e-06, No Iterations 1
DILUPBiCG:  Solving for Uy, Initial residual = 0.0111545014949, Final residual = 2.91214539225e-05, No Iterations 1
DILUPBiCG:  Solving for Uz, Initial residual = 0.0015446621845, Final residual = 4.56685294608e-05, No Iterations 1
GAMG:  Solving for p, Initial residual = 0.00275754980761, Final residual = 0.00137506116881, No Iterations 152
time step continuity errors : sum local = 1.01484401731e-06, global = 6.34934650243e-10, cumulative = 1.44004149666e-07
ExecutionTime = 118.75 s  ClockTime = 119 s

Time = 87

DILUPBiCG:  Solving for Ux, Initial residual = 0.00200161915405, Final residual = 2.76019368718e-06, No Iterations 1
DILUPBiCG:  Solving for Uy, Initial residual = 0.0109600110573, Final residual = 2.88450347944e-05, No Iterations 1
DILUPBiCG:  Solving for Uz, Initial residual = 0.00156915344353, Final residual = 4.35578457135e-05, No Iterations 1
GAMG:  Solving for p, Initial residual = 0.00254864031884, Final residual = 0.0012697173931, No Iterations 100
time step continuity errors : sum local = 9.34880542455e-07, global = 1.22773911818e-09, cumulative = 1.45231888784e-07
ExecutionTime = 119.33 s  ClockTime = 120 s

Time = 88

DILUPBiCG:  Solving for Ux, Initial residual = 0.00197280159395, Final residual = 2.71765488117e-06, No Iterations 1
DILUPBiCG:  Solving for Uy, Initial residual = 0.0109338990382, Final residual = 2.84904108229e-05, No Iterations 1
DILUPBiCG:  Solving for Uz, Initial residual = 0.00160699407769, Final residual = 4.71802698112e-05, No Iterations 1
GAMG:  Solving for p, Initial residual = 0.00234072649661, Final residual = 0.00116804635955, No Iterations 84
time step continuity errors : sum local = 8.58298314157e-07, global = 2.00473400281e-09, cumulative = 1.47236622787e-07
ExecutionTime = 119.87 s  ClockTime = 120 s

Time = 89

DILUPBiCG:  Solving for Ux, Initial residual = 0.00194468635131, Final residual = 2.67988937029e-06, No Iterations 1
DILUPBiCG:  Solving for Uy, Initial residual = 0.0108542134904, Final residual = 2.83977850371e-05, No Iterations 1
DILUPBiCG:  Solving for Uz, Initial residual = 0.00157783860326, Final residual = 4.42609772961e-05, No Iterations 1
GAMG:  Solving for p, Initial residual = 0.00237274849909, Final residual = 0.00118182121318, No Iterations 94
time step continuity errors : sum local = 8.66537476743e-07, global = 2.40080637443e-09, cumulative = 1.49637429162e-07
ExecutionTime = 120.47 s  ClockTime = 121 s

Time = 90

DILUPBiCG:  Solving for Ux, Initial residual = 0.00191743467219, Final residual = 2.67725533245e-06, No Iterations 1
DILUPBiCG:  Solving for Uy, Initial residual = 0.0108662099926, Final residual = 2.84381290745e-05, No Iterations 1
DILUPBiCG:  Solving for Uz, Initial residual = 0.00154023912803, Final residual = 3.566942308e-05, No Iterations 1
GAMG:  Solving for p, Initial residual = 0.00256157714288, Final residual = 0.00128062787154, No Iterations 110
time step continuity errors : sum local = 9.3617375902e-07, global = 2.34639732292e-09, cumulative = 1.51983826485e-07
ExecutionTime = 121.08 s  ClockTime = 121 s

Time = 91

DILUPBiCG:  Solving for Ux, Initial residual = 0.00189097742838, Final residual = 2.63010521264e-06, No Iterations 1
DILUPBiCG:  Solving for Uy, Initial residual = 0.0109978147923, Final residual = 2.8586641313e-05, No Iterations 1
DILUPBiCG:  Solving for Uz, Initial residual = 0.00150418517564, Final residual = 2.84277075352e-05, No Iterations 1
GAMG:  Solving for p, Initial residual = 0.0026853034616, Final residual = 0.00134064819994, No Iterations 140
time step continuity errors : sum local = 9.76361709092e-07, global = 1.85250498168e-09, cumulative = 1.53836331466e-07
ExecutionTime = 121.82 s  ClockTime = 122 s

Time = 92

DILUPBiCG:  Solving for Ux, Initial residual = 0.00186533532024, Final residual = 2.59817431847e-06, No Iterations 1
DILUPBiCG:  Solving for Uy, Initial residual = 0.0107718267162, Final residual = 2.79518194836e-05, No Iterations 1
DILUPBiCG:  Solving for Uz, Initial residual = 0.00148122784635, Final residual = 2.48457558188e-05, No Iterations 1
GAMG:  Solving for p, Initial residual = 0.00269864274017, Final residual = 0.00134873493067, No Iterations 134
time step continuity errors : sum local = 9.77908263688e-07, global = 1.46410585021e-09, cumulative = 1.55300437317e-07
ExecutionTime = 122.55 s  ClockTime = 123 s

Time = 93

DILUPBiCG:  Solving for Ux, Initial residual = 0.00184043520526, Final residual = 2.55653699858e-06, No Iterations 1
DILUPBiCG:  Solving for Uy, Initial residual = 0.0106967447477, Final residual = 2.80571026818e-05, No Iterations 1
DILUPBiCG:  Solving for Uz, Initial residual = 0.00148542111209, Final residual = 2.37541709143e-05, No Iterations 1
GAMG:  Solving for p, Initial residual = 0.00254397156149, Final residual = 0.00126815635715, No Iterations 106
time step continuity errors : sum local = 9.15999119961e-07, global = 1.22233940921e-09, cumulative = 1.56522776726e-07
ExecutionTime = 123.13 s  ClockTime = 123 s

Time = 94

DILUPBiCG:  Solving for Ux, Initial residual = 0.00181586431622, Final residual = 2.52984809337e-06, No Iterations 1
DILUPBiCG:  Solving for Uy, Initial residual = 0.0104631782094, Final residual = 2.74985264337e-05, No Iterations 1
DILUPBiCG:  Solving for Uz, Initial residual = 0.0014723373573, Final residual = 2.2681330012e-05, No Iterations 1
GAMG:  Solving for p, Initial residual = 0.00245256586554, Final residual = 0.00122362942022, No Iterations 68
time step continuity errors : sum local = 8.81473794608e-07, global = 1.38080273009e-09, cumulative = 1.57903579456e-07
ExecutionTime = 123.58 s  ClockTime = 124 s

Time = 95

DILUPBiCG:  Solving for Ux, Initial residual = 0.00179162957808, Final residual = 2.50511732735e-06, No Iterations 1
DILUPBiCG:  Solving for Uy, Initial residual = 0.0103389735762, Final residual = 2.74495179443e-05, No Iterations 1
DILUPBiCG:  Solving for Uz, Initial residual = 0.00144197471187, Final residual = 2.07577584819e-05, No Iterations 1
GAMG:  Solving for p, Initial residual = 0.00241345112791, Final residual = 0.00120058390993, No Iterations 90
time step continuity errors : sum local = 8.63275215301e-07, global = 1.54040383823e-09, cumulative = 1.59443983294e-07
ExecutionTime = 124.11 s  ClockTime = 124 s

Time = 96

DILUPBiCG:  Solving for Ux, Initial residual = 0.00176829391802, Final residual = 2.45552656608e-06, No Iterations 1
DILUPBiCG:  Solving for Uy, Initial residual = 0.0105841285922, Final residual = 2.79258888582e-05, No Iterations 1
DILUPBiCG:  Solving for Uz, Initial residual = 0.00141558908961, Final residual = 1.86851670918e-05, No Iterations 1
GAMG:  Solving for p, Initial residual = 0.00241332189047, Final residual = 0.00120298844696, No Iterations 130
time step continuity errors : sum local = 8.62647089961e-07, global = 1.40628224788e-09, cumulative = 1.60850265542e-07
ExecutionTime = 124.8 s  ClockTime = 125 s

Time = 97

DILUPBiCG:  Solving for Ux, Initial residual = 0.0017457754694, Final residual = 2.42655288281e-06, No Iterations 1
DILUPBiCG:  Solving for Uy, Initial residual = 0.010451881173, Final residual = 2.69465510577e-05, No Iterations 1
DILUPBiCG:  Solving for Uz, Initial residual = 0.00140089185776, Final residual = 1.73598716648e-05, No Iterations 1
GAMG:  Solving for p, Initial residual = 0.0024381300652, Final residual = 0.00121875040303, No Iterations 158
time step continuity errors : sum local = 8.70470074683e-07, global = 1.10719235427e-09, cumulative = 1.61957457896e-07
ExecutionTime = 125.59 s  ClockTime = 126 s

Time = 98

DILUPBiCG:  Solving for Ux, Initial residual = 0.00172369934475, Final residual = 2.39356399026e-06, No Iterations 1
DILUPBiCG:  Solving for Uy, Initial residual = 0.0104229536737, Final residual = 2.70683454816e-05, No Iterations 1
DILUPBiCG:  Solving for Uz, Initial residual = 0.0013897942207, Final residual = 1.62883929803e-05, No Iterations 1
GAMG:  Solving for p, Initial residual = 0.00235521273638, Final residual = 0.0011747880502, No Iterations 170
time step continuity errors : sum local = 8.35401699036e-07, global = 7.9292816114e-10, cumulative = 1.62750386057e-07
ExecutionTime = 126.43 s  ClockTime = 127 s

Time = 99

DILUPBiCG:  Solving for Ux, Initial residual = 0.00170191826522, Final residual = 2.36749296534e-06, No Iterations 1
DILUPBiCG:  Solving for Uy, Initial residual = 0.0103251322661, Final residual = 2.69920709572e-05, No Iterations 1
DILUPBiCG:  Solving for Uz, Initial residual = 0.00138947735431, Final residual = 1.55168573412e-05, No Iterations 1
GAMG:  Solving for p, Initial residual = 0.0023138472164, Final residual = 0.0011537974613, No Iterations 132
time step continuity errors : sum local = 8.17345849608e-07, global = 6.79231557542e-10, cumulative = 1.63429617615e-07
ExecutionTime = 127.14 s  ClockTime = 127 s

Time = 100

DILUPBiCG:  Solving for Ux, Initial residual = 0.0016800978338, Final residual = 2.35630626498e-06, No Iterations 1
DILUPBiCG:  Solving for Uy, Initial residual = 0.0100368057089, Final residual = 2.64044360887e-05, No Iterations 1
DILUPBiCG:  Solving for Uz, Initial residual = 0.00135138982119, Final residual = 1.44803450838e-05, No Iterations 1
GAMG:  Solving for p, Initial residual = 0.00237973741167, Final residual = 0.00118983419931, No Iterations 126
time step continuity errors : sum local = 8.40895532527e-07, global = 7.15145633785e-10, cumulative = 1.64144763249e-07
ExecutionTime = 127.95 s  ClockTime = 128 s

Time = 101

DILUPBiCG:  Solving for Ux, Initial residual = 0.00165866727137, Final residual = 2.31737370044e-06, No Iterations 1
DILUPBiCG:  Solving for Uy, Initial residual = 0.00997381713219, Final residual = 2.66036969394e-05, No Iterations 1
DILUPBiCG:  Solving for Uz, Initial residual = 0.0013219705522, Final residual = 1.34760799141e-05, No Iterations 1
GAMG:  Solving for p, Initial residual = 0.00231968469159, Final residual = 0.00115532098359, No Iterations 164
time step continuity errors : sum local = 8.14717037384e-07, global = 8.1207722936e-10, cumulative = 1.64956840478e-07
ExecutionTime = 128.77 s  ClockTime = 129 s

Time = 102

DILUPBiCG:  Solving for Ux, Initial residual = 0.00163787337811, Final residual = 2.2967796286e-06, No Iterations 1
DILUPBiCG:  Solving for Uy, Initial residual = 0.0101366607404, Final residual = 2.70362641729e-05, No Iterations 1
DILUPBiCG:  Solving for Uz, Initial residual = 0.0012944298757, Final residual = 1.26184436459e-05, No Iterations 1
GAMG:  Solving for p, Initial residual = 0.00225392793838, Final residual = 0.00112215952251, No Iterations 144
time step continuity errors : sum local = 7.89202523598e-07, global = 1.08417525548e-09, cumulative = 1.66041015734e-07
ExecutionTime = 129.51 s  ClockTime = 130 s

Time = 103

DILUPBiCG:  Solving for Ux, Initial residual = 0.00161746606018, Final residual = 2.26482465041e-06, No Iterations 1
DILUPBiCG:  Solving for Uy, Initial residual = 0.00987960147432, Final residual = 2.59578101981e-05, No Iterations 1
DILUPBiCG:  Solving for Uz, Initial residual = 0.00128421042009, Final residual = 1.20384135232e-05, No Iterations 1
GAMG:  Solving for p, Initial residual = 0.00213353688829, Final residual = 0.0010643713201, No Iterations 106
time step continuity errors : sum local = 7.46669972366e-07, global = 1.46263473267e-09, cumulative = 1.67503650466e-07
ExecutionTime = 130.09 s  ClockTime = 130 s

Time = 104

DILUPBiCG:  Solving for Ux, Initial residual = 0.00159747721155, Final residual = 2.24751121152e-06, No Iterations 1
DILUPBiCG:  Solving for Uy, Initial residual = 0.00969832856414, Final residual = 2.57035830417e-05, No Iterations 1
DILUPBiCG:  Solving for Uz, Initial residual = 0.00127411441081, Final residual = 1.15416565759e-05, No Iterations 1
GAMG:  Solving for p, Initial residual = 0.00200190351947, Final residual = 0.000999600363502, No Iterations 90
time step continuity errors : sum local = 6.99763889214e-07, global = 1.69383106398e-09, cumulative = 1.6919748153e-07
ExecutionTime = 130.64 s  ClockTime = 131 s

Time = 105

DILUPBiCG:  Solving for Ux, Initial residual = 0.00157791383835, Final residual = 2.20378702004e-06, No Iterations 1
DILUPBiCG:  Solving for Uy, Initial residual = 0.00968212595598, Final residual = 2.56271535622e-05, No Iterations 1
DILUPBiCG:  Solving for Uz, Initial residual = 0.00126571009592, Final residual = 1.10989917332e-05, No Iterations 1
GAMG:  Solving for p, Initial residual = 0.00197976533211, Final residual = 0.000984705105082, No Iterations 100
time step continuity errors : sum local = 6.87921339639e-07, global = 1.65050471527e-09, cumulative = 1.70847986245e-07
ExecutionTime = 131.24 s  ClockTime = 132 s

Time = 106

DILUPBiCG:  Solving for Ux, Initial residual = 0.00155885090076, Final residual = 2.2048600773e-06, No Iterations 1
DILUPBiCG:  Solving for Uy, Initial residual = 0.00955813151713, Final residual = 2.51448369288e-05, No Iterations 1
DILUPBiCG:  Solving for Uz, Initial residual = 0.00124402459269, Final residual = 1.05344290291e-05, No Iterations 1
GAMG:  Solving for p, Initial residual = 0.00201474176041, Final residual = 0.00100311056833, No Iterations 118
time step continuity errors : sum local = 6.98985783537e-07, global = 1.42536635507e-09, cumulative = 1.72273352601e-07
ExecutionTime = 131.89 s  ClockTime = 132 s

Time = 107

DILUPBiCG:  Solving for Ux, Initial residual = 0.00154042259855, Final residual = 2.17014241962e-06, No Iterations 1
DILUPBiCG:  Solving for Uy, Initial residual = 0.0096792366577, Final residual = 2.53905895639e-05, No Iterations 1
DILUPBiCG:  Solving for Uz, Initial residual = 0.00122073031386, Final residual = 1.00550391622e-05, No Iterations 1
GAMG:  Solving for p, Initial residual = 0.0020581652166, Final residual = 0.00102539121219, No Iterations 120
time step continuity errors : sum local = 7.12195745241e-07, global = 1.18966906374e-09, cumulative = 1.73463021664e-07
ExecutionTime = 132.59 s  ClockTime = 133 s

Time = 108

DILUPBiCG:  Solving for Ux, Initial residual = 0.00152225931756, Final residual = 2.14937720134e-06, No Iterations 1
DILUPBiCG:  Solving for Uy, Initial residual = 0.00958359445449, Final residual = 2.5342329456e-05, No Iterations 1
DILUPBiCG:  Solving for Uz, Initial residual = 0.0012107177548, Final residual = 9.7071831049e-06, No Iterations 1
GAMG:  Solving for p, Initial residual = 0.00210820796634, Final residual = 0.00104890702389, No Iterations 100
time step continuity errors : sum local = 7.26193372408e-07, global = 1.05849129553e-09, cumulative = 1.7452151296e-07
ExecutionTime = 133.16 s  ClockTime = 133 s

Time = 109

DILUPBiCG:  Solving for Ux, Initial residual = 0.00150421376376, Final residual = 2.11660342086e-06, No Iterations 1
DILUPBiCG:  Solving for Uy, Initial residual = 0.00945742922834, Final residual = 2.50252049337e-05, No Iterations 1
DILUPBiCG:  Solving for Uz, Initial residual = 0.00121022316826, Final residual = 9.52464174001e-06, No Iterations 1
GAMG:  Solving for p, Initial residual = 0.00211774259848, Final residual = 0.00105540872895, No Iterations 82
time step continuity errors : sum local = 7.28802546989e-07, global = 1.08810997002e-09, cumulative = 1.7560962293e-07
ExecutionTime = 133.66 s  ClockTime = 134 s

Time = 110

DILUPBiCG:  Solving for Ux, Initial residual = 0.00148626452589, Final residual = 2.09314415814e-06, No Iterations 1
DILUPBiCG:  Solving for Uy, Initial residual = 0.00946481144528, Final residual = 2.49238669465e-05, No Iterations 1
DILUPBiCG:  Solving for Uz, Initial residual = 0.00119196021007, Final residual = 9.11700602921e-06, No Iterations 1
GAMG:  Solving for p, Initial residual = 0.0021381170354, Final residual = 0.00106866822594, No Iterations 82
time step continuity errors : sum local = 7.36412086154e-07, global = 1.24114150553e-09, cumulative = 1.76850764435e-07
ExecutionTime = 134.18 s  ClockTime = 134 s

Time = 111

DILUPBiCG:  Solving for Ux, Initial residual = 0.00146877605261, Final residual = 2.06517399779e-06, No Iterations 1
DILUPBiCG:  Solving for Uy, Initial residual = 0.00938775088401, Final residual = 2.49950134686e-05, No Iterations 1
DILUPBiCG:  Solving for Uz, Initial residual = 0.00116644440845, Final residual = 8.68228521792e-06, No Iterations 1
GAMG:  Solving for p, Initial residual = 0.00211011670728, Final residual = 0.0010488839404, No Iterations 110
time step continuity errors : sum local = 7.21174702779e-07, global = 1.24708830856e-09, cumulative = 1.78097852744e-07
ExecutionTime = 134.79 s  ClockTime = 135 s

Time = 112

DILUPBiCG:  Solving for Ux, Initial residual = 0.00145181037051, Final residual = 2.03666641788e-06, No Iterations 1
DILUPBiCG:  Solving for Uy, Initial residual = 0.00947271185559, Final residual = 2.49191275611e-05, No Iterations 1
DILUPBiCG:  Solving for Uz, Initial residual = 0.001158306505, Final residual = 8.41959185692e-06, No Iterations 1
GAMG:  Solving for p, Initial residual = 0.00207437494509, Final residual = 0.00103716362288, No Iterations 120
time step continuity errors : sum local = 7.10926599491e-07, global = 1.2037503879e-09, cumulative = 1.79301603132e-07
ExecutionTime = 135.43 s  ClockTime = 136 s

Time = 113

DILUPBiCG:  Solving for Ux, Initial residual = 0.00143507133116, Final residual = 2.03876319983e-06, No Iterations 1
DILUPBiCG:  Solving for Uy, Initial residual = 0.00946982644813, Final residual = 2.51752534688e-05, No Iterations 1
DILUPBiCG:  Solving for Uz, Initial residual = 0.001148270271, Final residual = 8.16362084371e-06, No Iterations 1
GAMG:  Solving for p, Initial residual = 0.00206816113721, Final residual = 0.00103403201926, No Iterations 110
time step continuity errors : sum local = 7.06567980591e-07, global = 1.14032799362e-09, cumulative = 1.80441931125e-07
ExecutionTime = 136.05 s  ClockTime = 136 s

Time = 114

DILUPBiCG:  Solving for Ux, Initial residual = 0.00141850117091, Final residual = 2.02082020766e-06, No Iterations 1
DILUPBiCG:  Solving for Uy, Initial residual = 0.00935566896824, Final residual = 2.45211444205e-05, No Iterations 1
DILUPBiCG:  Solving for Uz, Initial residual = 0.00113795202234, Final residual = 7.96099652436e-06, No Iterations 1
GAMG:  Solving for p, Initial residual = 0.00205192780155, Final residual = 0.00102590864872, No Iterations 98
time step continuity errors : sum local = 6.99186187616e-07, global = 1.06145047612e-09, cumulative = 1.81503381602e-07
ExecutionTime = 136.62 s  ClockTime = 137 s

Time = 115

DILUPBiCG:  Solving for Ux, Initial residual = 0.00140213137803, Final residual = 1.99027342559e-06, No Iterations 1
DILUPBiCG:  Solving for Uy, Initial residual = 0.00927451718848, Final residual = 2.450370365e-05, No Iterations 1
DILUPBiCG:  Solving for Uz, Initial residual = 0.0011360389, Final residual = 7.82645892658e-06, No Iterations 1
GAMG:  Solving for p, Initial residual = 0.00205153861027, Final residual = 0.0010231314595, No Iterations 106
time step continuity errors : sum local = 6.9585966187e-07, global = 9.85645586814e-10, cumulative = 1.82489027188e-07
ExecutionTime = 137.33 s  ClockTime = 138 s

Time = 116

DILUPBiCG:  Solving for Ux, Initial residual = 0.00138613743063, Final residual = 1.95376774303e-06, No Iterations 1
DILUPBiCG:  Solving for Uy, Initial residual = 0.00936879349964, Final residual = 2.50947089836e-05, No Iterations 1
DILUPBiCG:  Solving for Uz, Initial residual = 0.0011089794699, Final residual = 7.50238490339e-06, No Iterations 1
GAMG:  Solving for p, Initial residual = 0.00206916333512, Final residual = 0.00103426766028, No Iterations 128
time step continuity errors : sum local = 7.02004611884e-07, global = 9.42190984708e-10, cumulative = 1.83431218173e-07
ExecutionTime = 138.04 s  ClockTime = 138 s

Time = 117

DILUPBiCG:  Solving for Ux, Initial residual = 0.00137081538602, Final residual = 1.94460344721e-06, No Iterations 1
DILUPBiCG:  Solving for Uy, Initial residual = 0.00934555099499, Final residual = 2.449594109e-05, No Iterations 1
DILUPBiCG:  Solving for Uz, Initial residual = 0.00109579785182, Final residual = 7.30098274818e-06, No Iterations 1
GAMG:  Solving for p, Initial residual = 0.00202938570336, Final residual = 0.00101300115471, No Iterations 138
time step continuity errors : sum local = 6.85983046556e-07, global = 9.60792585829e-10, cumulative = 1.84392010759e-07
ExecutionTime = 138.76 s  ClockTime = 139 s

Time = 118

DILUPBiCG:  Solving for Ux, Initial residual = 0.0013558723445, Final residual = 1.92023957837e-06, No Iterations 1
DILUPBiCG:  Solving for Uy, Initial residual = 0.0092737241582, Final residual = 2.46438195553e-05, No Iterations 1
DILUPBiCG:  Solving for Uz, Initial residual = 0.0010826199056, Final residual = 7.12440953845e-06, No Iterations 1
GAMG:  Solving for p, Initial residual = 0.00194331649429, Final residual = 0.000969347821231, No Iterations 122
time step continuity errors : sum local = 6.54869939911e-07, global = 1.02347406567e-09, cumulative = 1.85415484825e-07
ExecutionTime = 139.43 s  ClockTime = 140 s

Time = 119

DILUPBiCG:  Solving for Ux, Initial residual = 0.00134094275661, Final residual = 1.90643875545e-06, No Iterations 1
DILUPBiCG:  Solving for Uy, Initial residual = 0.00910919828844, Final residual = 2.40734202287e-05, No Iterations 1
DILUPBiCG:  Solving for Uz, Initial residual = 0.00107102085361, Final residual = 6.90346717895e-06, No Iterations 1
GAMG:  Solving for p, Initial residual = 0.00188013433495, Final residual = 0.000937005353946, No Iterations 94
time step continuity errors : sum local = 6.31774619725e-07, global = 1.16733217141e-09, cumulative = 1.86582816996e-07
ExecutionTime = 139.98 s  ClockTime = 140 s

Time = 120

DILUPBiCG:  Solving for Ux, Initial residual = 0.00132603745679, Final residual = 1.89917704138e-06, No Iterations 1
DILUPBiCG:  Solving for Uy, Initial residual = 0.0090072492516, Final residual = 2.40806346754e-05, No Iterations 1
DILUPBiCG:  Solving for Uz, Initial residual = 0.00106432734713, Final residual = 6.79563617825e-06, No Iterations 1
GAMG:  Solving for p, Initial residual = 0.00186310952168, Final residual = 0.000930538290278, No Iterations 98
time step continuity errors : sum local = 6.26403467783e-07, global = 1.17560456493e-09, cumulative = 1.87758421561e-07
ExecutionTime = 140.55 s  ClockTime = 141 s

Time = 121

DILUPBiCG:  Solving for Ux, Initial residual = 0.00131152567532, Final residual = 1.86221529217e-06, No Iterations 1
DILUPBiCG:  Solving for Uy, Initial residual = 0.0091878340366, Final residual = 2.46352807225e-05, No Iterations 1
DILUPBiCG:  Solving for Uz, Initial residual = 0.00105942609664, Final residual = 6.63938124091e-06, No Iterations 1
GAMG:  Solving for p, Initial residual = 0.00184303555578, Final residual = 0.000920121576418, No Iterations 122
time step continuity errors : sum local = 6.1822531542e-07, global = 1.02368835435e-09, cumulative = 1.88782109915e-07
ExecutionTime = 141.22 s  ClockTime = 142 s

Time = 122

DILUPBiCG:  Solving for Ux, Initial residual = 0.00129751074302, Final residual = 1.86087535494e-06, No Iterations 1
DILUPBiCG:  Solving for Uy, Initial residual = 0.00923760815603, Final residual = 2.41999123273e-05, No Iterations 1
DILUPBiCG:  Solving for Uz, Initial residual = 0.00103888306602, Final residual = 6.41389359519e-06, No Iterations 1
GAMG:  Solving for p, Initial residual = 0.00186457981392, Final residual = 0.000931837959027, No Iterations 116
time step continuity errors : sum local = 6.24536235726e-07, global = 9.3438512471e-10, cumulative = 1.8971649504e-07
ExecutionTime = 141.86 s  ClockTime = 142 s

Time = 123

DILUPBiCG:  Solving for Ux, Initial residual = 0.00128368009287, Final residual = 1.82645168806e-06, No Iterations 1
DILUPBiCG:  Solving for Uy, Initial residual = 0.00925773333698, Final residual = 2.43754675104e-05, No Iterations 1
DILUPBiCG:  Solving for Uz, Initial residual = 0.00102586734859, Final residual = 6.26483498939e-06, No Iterations 1
GAMG:  Solving for p, Initial residual = 0.0018499676489, Final residual = 0.000922710252186, No Iterations 106
time step continuity errors : sum local = 6.16862873703e-07, global = 8.75764266607e-10, cumulative = 1.90592259307e-07
ExecutionTime = 142.45 s  ClockTime = 143 s

Time = 124

DILUPBiCG:  Solving for Ux, Initial residual = 0.00126996564602, Final residual = 1.81439783226e-06, No Iterations 1
DILUPBiCG:  Solving for Uy, Initial residual = 0.00916437061916, Final residual = 2.41299605379e-05, No Iterations 1
DILUPBiCG:  Solving for Uz, Initial residual = 0.0010269441134, Final residual = 6.21462449073e-06, No Iterations 1
[...]
DILUPBiCG:  Solving for Uy, Initial residual = 0.00563205887405, Final residual = 1.64421940623e-05, No Iterations 1
DILUPBiCG:  Solving for Uz, Initial residual = 4.37883557672e-07, Final residual = 1.64223404366e-09, No Iterations 1
GAMG:  Solving for p, Initial residual = 1.11504173827e-06, Final residual = 5.56169917877e-07, No Iterations 70
time step continuity errors : sum local = 2.73743427473e-10, global = 5.16614919338e-13, cumulative = 3.76545497405e-07
ExecutionTime = 899.33 s  ClockTime = 1096 s

Time = 1704

DILUPBiCG:  Solving for Ux, Initial residual = 3.49770645743e-07, Final residual = 1.26841760223e-09, No Iterations 1
DILUPBiCG:  Solving for Uy, Initial residual = 0.00564759185561, Final residual = 1.64174647447e-05, No Iterations 1
DILUPBiCG:  Solving for Uz, Initial residual = 4.37375733266e-07, Final residual = 1.62377864667e-09, No Iterations 1
GAMG:  Solving for p, Initial residual = 1.12405987284e-06, Final residual = 5.60199589033e-07, No Iterations 54
time step continuity errors : sum local = 2.75727016191e-10, global = 5.35371903548e-13, cumulative = 3.76546032777e-07
ExecutionTime = 899.8 s  ClockTime = 1097 s

Time = 1705

DILUPBiCG:  Solving for Ux, Initial residual = 3.48109832047e-07, Final residual = 1.22831640848e-09, No Iterations 1
DILUPBiCG:  Solving for Uy, Initial residual = 0.00558261414665, Final residual = 1.61461074065e-05, No Iterations 1
DILUPBiCG:  Solving for Uz, Initial residual = 4.28600954244e-07, Final residual = 1.56937851432e-09, No Iterations 1
GAMG:  Solving for p, Initial residual = 1.09603093282e-06, Final residual = 5.46715608866e-07, No Iterations 54
time step continuity errors : sum local = 2.69091652866e-10, global = 5.12619176735e-13, cumulative = 3.76546545397e-07
ExecutionTime = 900.25 s  ClockTime = 1097 s

Time = 1706

DILUPBiCG:  Solving for Ux, Initial residual = 3.46428717569e-07, Final residual = 1.22645820186e-09, No Iterations 1
DILUPBiCG:  Solving for Uy, Initial residual = 0.00556653323152, Final residual = 1.61524282877e-05, No Iterations 1
DILUPBiCG:  Solving for Uz, Initial residual = 4.28085555177e-07, Final residual = 1.61059285859e-09, No Iterations 1
GAMG:  Solving for p, Initial residual = 1.10199831909e-06, Final residual = 5.49763476206e-07, No Iterations 48
time step continuity errors : sum local = 2.70596697726e-10, global = 5.28766690509e-13, cumulative = 3.76547074163e-07
ExecutionTime = 900.65 s  ClockTime = 1098 s

Time = 1707

DILUPBiCG:  Solving for Ux, Initial residual = 3.44753700921e-07, Final residual = 1.21006950952e-09, No Iterations 1
DILUPBiCG:  Solving for Uy, Initial residual = 0.00562941450585, Final residual = 1.63174755127e-05, No Iterations 1
DILUPBiCG:  Solving for Uz, Initial residual = 4.22803603376e-07, Final residual = 1.52464612187e-09, No Iterations 1
GAMG:  Solving for p, Initial residual = 1.10996956753e-06, Final residual = 5.53400760213e-07, No Iterations 52
time step continuity errors : sum local = 2.72386293846e-10, global = 5.30086668912e-13, cumulative = 3.7654760425e-07
ExecutionTime = 901.09 s  ClockTime = 1098 s

Time = 1708

DILUPBiCG:  Solving for Ux, Initial residual = 3.43123664326e-07, Final residual = 1.21484406393e-09, No Iterations 1
DILUPBiCG:  Solving for Uy, Initial residual = 0.00556962865121, Final residual = 1.60980381314e-05, No Iterations 1
DILUPBiCG:  Solving for Uz, Initial residual = 4.27861597239e-07, Final residual = 1.60241725038e-09, No Iterations 1
GAMG:  Solving for p, Initial residual = 1.10959480916e-06, Final residual = 5.53801808046e-07, No Iterations 58
time step continuity errors : sum local = 2.72582583939e-10, global = 5.34876731836e-13, cumulative = 3.76548139127e-07
ExecutionTime = 901.61 s  ClockTime = 1099 s

Time = 1709

DILUPBiCG:  Solving for Ux, Initial residual = 3.41529865671e-07, Final residual = 1.21199639236e-09, No Iterations 1
DILUPBiCG:  Solving for Uy, Initial residual = 0.00563047711525, Final residual = 1.65895620492e-05, No Iterations 1
DILUPBiCG:  Solving for Uz, Initial residual = 4.31806148813e-07, Final residual = 1.66239664138e-09, No Iterations 1
GAMG:  Solving for p, Initial residual = 1.13122307867e-06, Final residual = 5.63563010863e-07, No Iterations 50
time step continuity errors : sum local = 2.77390045809e-10, global = 5.541140126e-13, cumulative = 3.76548693241e-07
ExecutionTime = 902.05 s  ClockTime = 1100 s

Time = 1710

DILUPBiCG:  Solving for Ux, Initial residual = 3.39909820361e-07, Final residual = 1.19623963244e-09, No Iterations 1
DILUPBiCG:  Solving for Uy, Initial residual = 0.00568158854103, Final residual = 1.64569070108e-05, No Iterations 1
DILUPBiCG:  Solving for Uz, Initial residual = 4.2195896048e-07, Final residual = 1.58841453732e-09, No Iterations 1
GAMG:  Solving for p, Initial residual = 1.08791476163e-06, Final residual = 5.41459532227e-07, No Iterations 70
time step continuity errors : sum local = 2.6650826576e-10, global = 5.07483407111e-13, cumulative = 3.76549200724e-07
ExecutionTime = 902.58 s  ClockTime = 1100 s

Time = 1711

DILUPBiCG:  Solving for Ux, Initial residual = 3.38410119868e-07, Final residual = 1.19159825151e-09, No Iterations 1
DILUPBiCG:  Solving for Uy, Initial residual = 0.00562806452191, Final residual = 1.6108595263e-05, No Iterations 1
DILUPBiCG:  Solving for Uz, Initial residual = 4.22923915468e-07, Final residual = 1.59054216856e-09, No Iterations 1
GAMG:  Solving for p, Initial residual = 1.0896612568e-06, Final residual = 5.44155016578e-07, No Iterations 54
time step continuity errors : sum local = 2.67836147466e-10, global = 5.07189497753e-13, cumulative = 3.76549707914e-07
ExecutionTime = 903.03 s  ClockTime = 1101 s

Time = 1712

DILUPBiCG:  Solving for Ux, Initial residual = 3.36801058598e-07, Final residual = 1.1910196709e-09, No Iterations 1
DILUPBiCG:  Solving for Uy, Initial residual = 0.00561518592334, Final residual = 1.62331484236e-05, No Iterations 1
DILUPBiCG:  Solving for Uz, Initial residual = 4.22884694054e-07, Final residual = 1.60247179786e-09, No Iterations 1
GAMG:  Solving for p, Initial residual = 1.09699951708e-06, Final residual = 5.47299369378e-07, No Iterations 44
time step continuity errors : sum local = 2.69385344864e-10, global = 5.17663670613e-13, cumulative = 3.76550225577e-07
ExecutionTime = 903.43 s  ClockTime = 1101 s

Time = 1713

DILUPBiCG:  Solving for Ux, Initial residual = 3.35141751415e-07, Final residual = 1.15689929501e-09, No Iterations 1
DILUPBiCG:  Solving for Uy, Initial residual = 0.00563819050116, Final residual = 1.63176391481e-05, No Iterations 1
DILUPBiCG:  Solving for Uz, Initial residual = 4.15920131672e-07, Final residual = 1.54487866652e-09, No Iterations 1
GAMG:  Solving for p, Initial residual = 1.08898948955e-06, Final residual = 5.43078465831e-07, No Iterations 52
time step continuity errors : sum local = 2.67309856815e-10, global = 5.06574905625e-13, cumulative = 3.76550732152e-07
ExecutionTime = 903.89 s  ClockTime = 1102 s

Time = 1714

DILUPBiCG:  Solving for Ux, Initial residual = 3.33548334238e-07, Final residual = 1.18712425827e-09, No Iterations 1
DILUPBiCG:  Solving for Uy, Initial residual = 0.00572564787521, Final residual = 1.67819031418e-05, No Iterations 1
DILUPBiCG:  Solving for Uz, Initial residual = 4.14160580636e-07, Final residual = 1.54236385377e-09, No Iterations 1
GAMG:  Solving for p, Initial residual = 1.06673756328e-06, Final residual = 5.32744664052e-07, No Iterations 64
time step continuity errors : sum local = 2.62219838158e-10, global = 4.92719096889e-13, cumulative = 3.76551224871e-07
ExecutionTime = 904.39 s  ClockTime = 1103 s

Time = 1715

DILUPBiCG:  Solving for Ux, Initial residual = 3.32042759745e-07, Final residual = 1.15059900725e-09, No Iterations 1
DILUPBiCG:  Solving for Uy, Initial residual = 0.00561903651604, Final residual = 1.61320342897e-05, No Iterations 1
DILUPBiCG:  Solving for Uz, Initial residual = 4.17992092408e-07, Final residual = 1.56917329101e-09, No Iterations 1
GAMG:  Solving for p, Initial residual = 1.08995563879e-06, Final residual = 5.44796904585e-07, No Iterations 50
time step continuity errors : sum local = 2.68156926579e-10, global = 5.25271743261e-13, cumulative = 3.76551750143e-07
ExecutionTime = 904.85 s  ClockTime = 1103 s

Time = 1716

DILUPBiCG:  Solving for Ux, Initial residual = 3.30453570847e-07, Final residual = 1.15609104799e-09, No Iterations 1
DILUPBiCG:  Solving for Uy, Initial residual = 0.00563671866627, Final residual = 1.61630905577e-05, No Iterations 1
DILUPBiCG:  Solving for Uz, Initial residual = 4.13437949772e-07, Final residual = 1.5708374868e-09, No Iterations 1
GAMG:  Solving for p, Initial residual = 1.08219973728e-06, Final residual = 5.38487454849e-07, No Iterations 56
time step continuity errors : sum local = 2.65052653039e-10, global = 5.26907150575e-13, cumulative = 3.7655227705e-07
ExecutionTime = 905.33 s  ClockTime = 1104 s

Time = 1717

DILUPBiCG:  Solving for Ux, Initial residual = 3.28914062022e-07, Final residual = 1.12874880345e-09, No Iterations 1
DILUPBiCG:  Solving for Uy, Initial residual = 0.00562904638104, Final residual = 1.64958851918e-05, No Iterations 1
DILUPBiCG:  Solving for Uz, Initial residual = 4.19545709879e-07, Final residual = 1.6225918126e-09, No Iterations 1
GAMG:  Solving for p, Initial residual = 1.08215591621e-06, Final residual = 5.39703598182e-07, No Iterations 52
time step continuity errors : sum local = 2.65651690448e-10, global = 5.36695183531e-13, cumulative = 3.76552813745e-07
ExecutionTime = 905.8 s  ClockTime = 1105 s

Time = 1718

DILUPBiCG:  Solving for Ux, Initial residual = 3.27342767171e-07, Final residual = 1.13729077447e-09, No Iterations 1
DILUPBiCG:  Solving for Uy, Initial residual = 0.00556558695663, Final residual = 1.59436742445e-05, No Iterations 1
DILUPBiCG:  Solving for Uz, Initial residual = 4.10486280946e-07, Final residual = 1.55664115888e-09, No Iterations 1
GAMG:  Solving for p, Initial residual = 1.06042586147e-06, Final residual = 5.30210627333e-07, No Iterations 60
time step continuity errors : sum local = 2.60979817291e-10, global = 5.17976653379e-13, cumulative = 3.76553331722e-07
ExecutionTime = 906.32 s  ClockTime = 1105 s

Time = 1719

DILUPBiCG:  Solving for Ux, Initial residual = 3.25841058539e-07, Final residual = 1.11498962833e-09, No Iterations 1
DILUPBiCG:  Solving for Uy, Initial residual = 0.00569068726409, Final residual = 1.66531990851e-05, No Iterations 1
DILUPBiCG:  Solving for Uz, Initial residual = 4.06833826992e-07, Final residual = 1.53854502546e-09, No Iterations 1
GAMG:  Solving for p, Initial residual = 1.03799732558e-06, Final residual = 5.16236576649e-07, No Iterations 66
time step continuity errors : sum local = 2.54101239468e-10, global = 4.83598737728e-13, cumulative = 3.76553815321e-07
ExecutionTime = 906.86 s  ClockTime = 1106 s

Time = 1720

DILUPBiCG:  Solving for Ux, Initial residual = 3.24371475113e-07, Final residual = 1.12285557077e-09, No Iterations 1
DILUPBiCG:  Solving for Uy, Initial residual = 0.00562842924481, Final residual = 1.6287722245e-05, No Iterations 1
DILUPBiCG:  Solving for Uz, Initial residual = 4.07862541439e-07, Final residual = 1.52165196857e-09, No Iterations 1
GAMG:  Solving for p, Initial residual = 1.05320701297e-06, Final residual = 5.24745169748e-07, No Iterations 44
time step continuity errors : sum local = 2.58290102992e-10, global = 5.08306971856e-13, cumulative = 3.76554323628e-07
ExecutionTime = 907.24 s  ClockTime = 1106 s

Time = 1721

DILUPBiCG:  Solving for Ux, Initial residual = 3.22773984811e-07, Final residual = 1.09922593705e-09, No Iterations 1
DILUPBiCG:  Solving for Uy, Initial residual = 0.00558979403093, Final residual = 1.60605189241e-05, No Iterations 1
DILUPBiCG:  Solving for Uz, Initial residual = 4.08747480211e-07, Final residual = 1.54132483971e-09, No Iterations 1
GAMG:  Solving for p, Initial residual = 1.03372095681e-06, Final residual = 5.14783363691e-07, No Iterations 54
time step continuity errors : sum local = 2.53388072063e-10, global = 4.8012986205e-13, cumulative = 3.76554803758e-07
ExecutionTime = 907.71 s  ClockTime = 1107 s

Time = 1722

DILUPBiCG:  Solving for Ux, Initial residual = 3.21247734971e-07, Final residual = 1.10493375462e-09, No Iterations 1
DILUPBiCG:  Solving for Uy, Initial residual = 0.00558144877354, Final residual = 1.62435094094e-05, No Iterations 1
DILUPBiCG:  Solving for Uz, Initial residual = 4.05080912381e-07, Final residual = 1.54592931267e-09, No Iterations 1
GAMG:  Solving for p, Initial residual = 1.03621864406e-06, Final residual = 5.17069037769e-07, No Iterations 54
time step continuity errors : sum local = 2.54511489799e-10, global = 4.88920334651e-13, cumulative = 3.76555292678e-07
ExecutionTime = 908.17 s  ClockTime = 1108 s

Time = 1723

DILUPBiCG:  Solving for Ux, Initial residual = 3.19731703937e-07, Final residual = 1.07296065267e-09, No Iterations 1
DILUPBiCG:  Solving for Uy, Initial residual = 0.00565265815631, Final residual = 1.65174566262e-05, No Iterations 1
DILUPBiCG:  Solving for Uz, Initial residual = 4.01615019244e-07, Final residual = 1.52002110375e-09, No Iterations 1
GAMG:  Solving for p, Initial residual = 1.05110602024e-06, Final residual = 5.22880210676e-07, No Iterations 50
time step continuity errors : sum local = 2.57376665033e-10, global = 5.01602125687e-13, cumulative = 3.7655579428e-07
ExecutionTime = 908.65 s  ClockTime = 1108 s

Time = 1724

DILUPBiCG:  Solving for Ux, Initial residual = 3.18200113939e-07, Final residual = 1.09332296495e-09, No Iterations 1
DILUPBiCG:  Solving for Uy, Initial residual = 0.00560846502024, Final residual = 1.61704039054e-05, No Iterations 1
DILUPBiCG:  Solving for Uz, Initial residual = 4.02782196804e-07, Final residual = 1.55090902924e-09, No Iterations 1
GAMG:  Solving for p, Initial residual = 1.06311026763e-06, Final residual = 5.2935022958e-07, No Iterations 52
time step continuity errors : sum local = 2.60559081943e-10, global = 5.14976149882e-13, cumulative = 3.76556309256e-07
ExecutionTime = 909.07 s  ClockTime = 1109 s

Time = 1725

DILUPBiCG:  Solving for Ux, Initial residual = 3.16708900498e-07, Final residual = 1.05143405748e-09, No Iterations 1
DILUPBiCG:  Solving for Uy, Initial residual = 0.00557773219574, Final residual = 1.59982325172e-05, No Iterations 1
DILUPBiCG:  Solving for Uz, Initial residual = 3.98081927309e-07, Final residual = 1.49381774941e-09, No Iterations 1
GAMG:  Solving for p, Initial residual = 1.02775139983e-06, Final residual = 5.13660111518e-07, No Iterations 68
time step continuity errors : sum local = 2.52839478821e-10, global = 4.7727011081e-13, cumulative = 3.76556786526e-07
ExecutionTime = 909.62 s  ClockTime = 1109 s

Time = 1726

DILUPBiCG:  Solving for Ux, Initial residual = 3.15305443316e-07, Final residual = 1.07904064496e-09, No Iterations 1
DILUPBiCG:  Solving for Uy, Initial residual = 0.00565617949817, Final residual = 1.62249001734e-05, No Iterations 1
DILUPBiCG:  Solving for Uz, Initial residual = 3.94080489796e-07, Final residual = 1.46672867271e-09, No Iterations 1
GAMG:  Solving for p, Initial residual = 1.03355154554e-06, Final residual = 5.15699739926e-07, No Iterations 56
time step continuity errors : sum local = 2.53839507451e-10, global = 4.84562666185e-13, cumulative = 3.76557271089e-07
ExecutionTime = 910.08 s  ClockTime = 1110 s

Time = 1727

DILUPBiCG:  Solving for Ux, Initial residual = 3.13820935916e-07, Final residual = 1.0448106204e-09, No Iterations 1
DILUPBiCG:  Solving for Uy, Initial residual = 0.00560500946769, Final residual = 1.61428123039e-05, No Iterations 1
DILUPBiCG:  Solving for Uz, Initial residual = 3.93694872735e-07, Final residual = 1.46282131896e-09, No Iterations 1
GAMG:  Solving for p, Initial residual = 1.03171387424e-06, Final residual = 5.14084659407e-07, No Iterations 46
time step continuity errors : sum local = 2.53050406361e-10, global = 4.80399823238e-13, cumulative = 3.76557751489e-07
ExecutionTime = 910.51 s  ClockTime = 1110 s

Time = 1728

DILUPBiCG:  Solving for Ux, Initial residual = 3.12293495654e-07, Final residual = 1.05437500502e-09, No Iterations 1
DILUPBiCG:  Solving for Uy, Initial residual = 0.00565952026945, Final residual = 1.63701306883e-05, No Iterations 1
DILUPBiCG:  Solving for Uz, Initial residual = 3.92978889303e-07, Final residual = 1.48482101218e-09, No Iterations 1
GAMG:  Solving for p, Initial residual = 1.02523573709e-06, Final residual = 5.11210393831e-07, No Iterations 50
time step continuity errors : sum local = 2.51632874732e-10, global = 4.79765919824e-13, cumulative = 3.76558231255e-07
ExecutionTime = 910.93 s  ClockTime = 1111 s

Time = 1729

DILUPBiCG:  Solving for Ux, Initial residual = 3.10794331209e-07, Final residual = 1.03160262136e-09, No Iterations 1
DILUPBiCG:  Solving for Uy, Initial residual = 0.00566299813175, Final residual = 1.64494738306e-05, No Iterations 1
DILUPBiCG:  Solving for Uz, Initial residual = 3.9218745559e-07, Final residual = 1.48056004016e-09, No Iterations 1
GAMG:  Solving for p, Initial residual = 1.02773692139e-06, Final residual = 5.13507280844e-07, No Iterations 52
time step continuity errors : sum local = 2.52767631391e-10, global = 4.79870206685e-13, cumulative = 3.76558711125e-07
ExecutionTime = 911.35 s  ClockTime = 1112 s

Time = 1730

DILUPBiCG:  Solving for Ux, Initial residual = 3.09336754036e-07, Final residual = 1.04363507915e-09, No Iterations 1
DILUPBiCG:  Solving for Uy, Initial residual = 0.00563288859132, Final residual = 1.64315187124e-05, No Iterations 1
DILUPBiCG:  Solving for Uz, Initial residual = 3.88767065471e-07, Final residual = 1.45989732848e-09, No Iterations 1
GAMG:  Solving for p, Initial residual = 1.00505936369e-06, Final residual = 4.9976351275e-07, No Iterations 68
time step continuity errors : sum local = 2.45997976579e-10, global = 4.51006534764e-13, cumulative = 3.76559162131e-07
ExecutionTime = 911.9 s  ClockTime = 1112 s

Time = 1731

DILUPBiCG:  Solving for Ux, Initial residual = 3.07959057849e-07, Final residual = 1.01747237382e-09, No Iterations 1
DILUPBiCG:  Solving for Uy, Initial residual = 0.0056322186743, Final residual = 1.62981396881e-05, No Iterations 1
DILUPBiCG:  Solving for Uz, Initial residual = 3.88534853406e-07, Final residual = 1.46224495542e-09, No Iterations 1
GAMG:  Solving for p, Initial residual = 1.00593472208e-06, Final residual = 5.01320332196e-07, No Iterations 56
time step continuity errors : sum local = 2.4677158401e-10, global = 4.654239163e-13, cumulative = 3.76559627555e-07
ExecutionTime = 912.38 s  ClockTime = 1113 s

Time = 1732

DILUPBiCG:  Solving for Ux, Initial residual = 3.06517849718e-07, Final residual = 1.02492001579e-09, No Iterations 1
DILUPBiCG:  Solving for Uy, Initial residual = 0.00564057450567, Final residual = 1.62597719153e-05, No Iterations 1
DILUPBiCG:  Solving for Uz, Initial residual = 3.8458058731e-07, Final residual = 1.43301575341e-09, No Iterations 1
GAMG:  Solving for p, Initial residual = 1.00598790951e-06, Final residual = 5.01600146245e-07, No Iterations 46
time step continuity errors : sum local = 2.46904576805e-10, global = 4.828133401e-13, cumulative = 3.76560110369e-07
ExecutionTime = 912.83 s  ClockTime = 1113 s

Time = 1733

DILUPBiCG:  Solving for Ux, Initial residual = 3.05020396629e-07, Final residual = 9.96840938545e-10, No Iterations 1
DILUPBiCG:  Solving for Uy, Initial residual = 0.0055764338846, Final residual = 1.62258655431e-05, No Iterations 1
DILUPBiCG:  Solving for Uz, Initial residual = 3.82427724997e-07, Final residual = 1.40293691015e-09, No Iterations 1
GAMG:  Solving for p, Initial residual = 9.77445210742e-07, Final residual = 4.87905334658e-07, No Iterations 58
time step continuity errors : sum local = 2.40166099756e-10, global = 4.52587310507e-13, cumulative = 3.76560562956e-07
ExecutionTime = 913.32 s  ClockTime = 1114 s


SIMPLE solution converged in 1733 iterations

End

