/*---------------------------------------------------------------------------*\
| =========                 |                                                 |
| \\      /  F ield         | OpenFOAM: The Open Source CFD Toolbox           |
|  \\    /   O peration     | Version:  2.3.0                                 |
|   \\  /    A nd           | Web:      www.OpenFOAM.org                      |
|    \\/     M anipulation  |                                                 |
\*---------------------------------------------------------------------------*/
Build  : 2.3.0-f5222ca19ce6
Exec   : /home/matveich1/OpenFOAM/OpenFOAM-2.3.0/platforms/linux64GccDPOpt/bin/simpleFoam
Date   : Nov 07 2014
Time   : 16:24:57
Host   : "baloo054.ijl.nancy-universite.fr"
PID    : 2332
Case   : /scratch/matveich1/Projects/Simulations/tube-pressure-drop-2D
nProcs : 1
sigFpe : Enabling floating point exception trapping (FOAM_SIGFPE).
fileModificationChecking : Monitoring run-time modified files using timeStampMaster
allowSystemOperations : Disallowing user-supplied system call operations

// * * * * * * * * * * * * * * * * * * * * * * * * * * * * * * * * * * * * * //
Create time

Create mesh for time = 0

Reading field p

Reading field U

Reading/calculating face flux field phi

Selecting incompressible transport model Newtonian
Selecting RAS turbulence model laminar
No finite volume options present


SIMPLE: convergence criteria
    field "(p|k|epsilon)"	 tolerance 1e-06
    field Ux	 tolerance 1e-06
    field Uz	 tolerance 1e-06


Starting time loop

Time = 1

DILUPBiCG:  Solving for Ux, Initial residual = 0.999999999998, Final residual = 1.74071499367e-05, No Iterations 1
DILUPBiCG:  Solving for Uy, Initial residual = 2.61773399685e-05, Final residual = 8.88916001559e-09, No Iterations 1
DILUPBiCG:  Solving for Uz, Initial residual = 0.000565577474781, Final residual = 9.79146962643e-08, No Iterations 1
GAMG:  Solving for p, Initial residual = 0.999999999868, Final residual = 3.41217680267, No Iterations 1000
time step continuity errors : sum local = 1.47799847624e-05, global = -1.15507942538e-08, cumulative = -1.15507942538e-08
ExecutionTime = 5.5 s  ClockTime = 8 s

Time = 2

DILUPBiCG:  Solving for Ux, Initial residual = 0.239453781714, Final residual = 6.04146819077e-05, No Iterations 1
DILUPBiCG:  Solving for Uy, Initial residual = 0.181953913152, Final residual = 8.04648164277e-05, No Iterations 1
DILUPBiCG:  Solving for Uz, Initial residual = 0.579130541118, Final residual = 0.000270369356562, No Iterations 1
GAMG:  Solving for p, Initial residual = 0.0159383872335, Final residual = 0.00860582675275, No Iterations 1000
time step continuity errors : sum local = 1.04343991719e-05, global = -6.11882757965e-09, cumulative = -1.76696218335e-08
ExecutionTime = 10.75 s  ClockTime = 14 s

Time = 3

DILUPBiCG:  Solving for Ux, Initial residual = 0.158447284706, Final residual = 4.39946127105e-05, No Iterations 1
DILUPBiCG:  Solving for Uy, Initial residual = 0.173543800391, Final residual = 8.04413351189e-05, No Iterations 1
DILUPBiCG:  Solving for Uz, Initial residual = 0.230923072805, Final residual = 0.000119757599458, No Iterations 1
GAMG:  Solving for p, Initial residual = 0.0137025543193, Final residual = 0.00682356583586, No Iterations 466
time step continuity errors : sum local = 1.2202080057e-05, global = 2.32830372367e-08, cumulative = 5.61341540321e-09
ExecutionTime = 13.44 s  ClockTime = 18 s

Time = 4

DILUPBiCG:  Solving for Ux, Initial residual = 0.0998180810197, Final residual = 3.13883742322e-05, No Iterations 1
DILUPBiCG:  Solving for Uy, Initial residual = 0.116094171369, Final residual = 5.34332064938e-05, No Iterations 1
DILUPBiCG:  Solving for Uz, Initial residual = 0.212073077702, Final residual = 9.85682015586e-05, No Iterations 1
GAMG:  Solving for p, Initial residual = 0.0146194167612, Final residual = 0.00977935924381, No Iterations 1000
time step continuity errors : sum local = 1.25897006041e-05, global = 1.06477029097e-08, cumulative = 1.6261118313e-08
ExecutionTime = 18.73 s  ClockTime = 25 s

Time = 5

DILUPBiCG:  Solving for Ux, Initial residual = 0.0468766328171, Final residual = 1.44295702785e-05, No Iterations 1
DILUPBiCG:  Solving for Uy, Initial residual = 0.0955643537622, Final residual = 3.05972396753e-05, No Iterations 1
DILUPBiCG:  Solving for Uz, Initial residual = 0.117958552208, Final residual = 6.20227307809e-05, No Iterations 1
GAMG:  Solving for p, Initial residual = 0.112663448877, Final residual = 0.0562880792001, No Iterations 760
time step continuity errors : sum local = 1.63843361475e-05, global = 1.05254826962e-08, cumulative = 2.67866010091e-08
ExecutionTime = 23.18 s  ClockTime = 32 s

Time = 6

DILUPBiCG:  Solving for Ux, Initial residual = 0.0381059071167, Final residual = 1.04208842486e-05, No Iterations 1
DILUPBiCG:  Solving for Uy, Initial residual = 0.0952033269241, Final residual = 3.66350912616e-05, No Iterations 1
DILUPBiCG:  Solving for Uz, Initial residual = 0.0747128960972, Final residual = 3.17143690236e-05, No Iterations 1
GAMG:  Solving for p, Initial residual = 0.15816499978, Final residual = 0.0790392953139, No Iterations 356
time step continuity errors : sum local = 1.79149075002e-05, global = -2.33292940289e-08, cumulative = 3.45730698016e-09
ExecutionTime = 25.24 s  ClockTime = 35 s

Time = 7

DILUPBiCG:  Solving for Ux, Initial residual = 0.0273821972805, Final residual = 8.07839664351e-06, No Iterations 1
DILUPBiCG:  Solving for Uy, Initial residual = 0.0447114426758, Final residual = 1.91895530502e-05, No Iterations 1
DILUPBiCG:  Solving for Uz, Initial residual = 0.145786587667, Final residual = 6.67694483642e-05, No Iterations 1
GAMG:  Solving for p, Initial residual = 0.464999621888, Final residual = 0.2314744951, No Iterations 476
time step continuity errors : sum local = 1.46874142988e-05, global = -2.66935983061e-08, cumulative = -2.32362913259e-08
ExecutionTime = 27.98 s  ClockTime = 38 s

Time = 8

DILUPBiCG:  Solving for Ux, Initial residual = 0.03080575229, Final residual = 8.67445146728e-06, No Iterations 1
DILUPBiCG:  Solving for Uy, Initial residual = 0.051441960494, Final residual = 2.30262145078e-05, No Iterations 1
DILUPBiCG:  Solving for Uz, Initial residual = 0.172477237626, Final residual = 8.14700397288e-05, No Iterations 1
GAMG:  Solving for p, Initial residual = 0.0706142704924, Final residual = 0.035262291615, No Iterations 358
time step continuity errors : sum local = 1.72382491323e-05, global = -2.49661311207e-08, cumulative = -4.82024224466e-08
ExecutionTime = 30.08 s  ClockTime = 41 s

Time = 9

DILUPBiCG:  Solving for Ux, Initial residual = 0.0301824594406, Final residual = 8.42265311948e-06, No Iterations 1
DILUPBiCG:  Solving for Uy, Initial residual = 0.0612150151642, Final residual = 2.93062424364e-05, No Iterations 1
DILUPBiCG:  Solving for Uz, Initial residual = 0.120553524307, Final residual = 5.90127422302e-05, No Iterations 1
GAMG:  Solving for p, Initial residual = 0.0625451717459, Final residual = 0.0312492701422, No Iterations 292
time step continuity errors : sum local = 2.07440759319e-05, global = 9.88114806164e-09, cumulative = -3.8321274385e-08
ExecutionTime = 31.91 s  ClockTime = 43 s

Time = 10

DILUPBiCG:  Solving for Ux, Initial residual = 0.0253572105807, Final residual = 7.42201404743e-06, No Iterations 1
DILUPBiCG:  Solving for Uy, Initial residual = 0.0492573791719, Final residual = 2.2666682287e-05, No Iterations 1
DILUPBiCG:  Solving for Uz, Initial residual = 0.128125048271, Final residual = 6.25216610335e-05, No Iterations 1
GAMG:  Solving for p, Initial residual = 0.0660453401131, Final residual = 0.0329324641637, No Iterations 390
time step continuity errors : sum local = 1.90208075378e-05, global = 2.27272337051e-08, cumulative = -1.55940406798e-08
ExecutionTime = 34.09 s  ClockTime = 46 s

Time = 11

DILUPBiCG:  Solving for Ux, Initial residual = 0.0211823816617, Final residual = 6.05295514134e-06, No Iterations 1
DILUPBiCG:  Solving for Uy, Initial residual = 0.0392889798972, Final residual = 1.64914585573e-05, No Iterations 1
DILUPBiCG:  Solving for Uz, Initial residual = 0.111461547731, Final residual = 5.43156078614e-05, No Iterations 1
GAMG:  Solving for p, Initial residual = 0.0951210347023, Final residual = 0.0475179864157, No Iterations 282
time step continuity errors : sum local = 1.92054733269e-05, global = 3.2381086399e-08, cumulative = 1.67870457192e-08
ExecutionTime = 35.74 s  ClockTime = 48 s

Time = 12

DILUPBiCG:  Solving for Ux, Initial residual = 0.0189260776301, Final residual = 5.11964159138e-06, No Iterations 1
DILUPBiCG:  Solving for Uy, Initial residual = 0.0328413033584, Final residual = 1.45355638023e-05, No Iterations 1
DILUPBiCG:  Solving for Uz, Initial residual = 0.0944933595289, Final residual = 4.37878748471e-05, No Iterations 1
GAMG:  Solving for p, Initial residual = 0.116147055534, Final residual = 0.0579438319446, No Iterations 218
time step continuity errors : sum local = 1.86634633774e-05, global = 1.35680650219e-08, cumulative = 3.03551107411e-08
ExecutionTime = 37.59 s  ClockTime = 51 s

Time = 13

DILUPBiCG:  Solving for Ux, Initial residual = 0.0177360728188, Final residual = 5.22531098913e-06, No Iterations 1
DILUPBiCG:  Solving for Uy, Initial residual = 0.0281955616255, Final residual = 1.34483068985e-05, No Iterations 1
DILUPBiCG:  Solving for Uz, Initial residual = 0.110433770705, Final residual = 5.58001865577e-05, No Iterations 1
GAMG:  Solving for p, Initial residual = 0.0978707446821, Final residual = 0.0487463925688, No Iterations 264
time step continuity errors : sum local = 1.58746582112e-05, global = 3.63911691484e-10, cumulative = 3.07190224326e-08
ExecutionTime = 39.51 s  ClockTime = 54 s

Time = 14

DILUPBiCG:  Solving for Ux, Initial residual = 0.0169164607627, Final residual = 4.81222419359e-06, No Iterations 1
DILUPBiCG:  Solving for Uy, Initial residual = 0.0279735946733, Final residual = 1.32670611059e-05, No Iterations 1
DILUPBiCG:  Solving for Uz, Initial residual = 0.0995567840355, Final residual = 4.98466999307e-05, No Iterations 1
GAMG:  Solving for p, Initial residual = 0.0945943328806, Final residual = 0.0472772267614, No Iterations 248
time step continuity errors : sum local = 1.65264449861e-05, global = -7.31062340748e-09, cumulative = 2.34083990251e-08
ExecutionTime = 41.1 s  ClockTime = 56 s

Time = 15

DILUPBiCG:  Solving for Ux, Initial residual = 0.0156407744022, Final residual = 4.57799474412e-06, No Iterations 1
DILUPBiCG:  Solving for Uy, Initial residual = 0.0258522811197, Final residual = 1.24003304408e-05, No Iterations 1
DILUPBiCG:  Solving for Uz, Initial residual = 0.0755237249272, Final residual = 3.8299051478e-05, No Iterations 1
GAMG:  Solving for p, Initial residual = 0.0938269550966, Final residual = 0.0468851807994, No Iterations 266
time step continuity errors : sum local = 1.59541764858e-05, global = -8.67880175577e-09, cumulative = 1.47295972694e-08
ExecutionTime = 42.74 s  ClockTime = 58 s

Time = 16

DILUPBiCG:  Solving for Ux, Initial residual = 0.0140536350561, Final residual = 4.17819638663e-06, No Iterations 1
DILUPBiCG:  Solving for Uy, Initial residual = 0.0234517859856, Final residual = 1.12021393248e-05, No Iterations 1
DILUPBiCG:  Solving for Uz, Initial residual = 0.0780551357324, Final residual = 4.26181679112e-05, No Iterations 1
GAMG:  Solving for p, Initial residual = 0.0932971672144, Final residual = 0.0465428809569, No Iterations 330
time step continuity errors : sum local = 1.36948909855e-05, global = -9.57636265653e-09, cumulative = 5.15323461282e-09
ExecutionTime = 44.69 s  ClockTime = 60 s

Time = 17

DILUPBiCG:  Solving for Ux, Initial residual = 0.0123230067517, Final residual = 3.56958786645e-06, No Iterations 1
DILUPBiCG:  Solving for Uy, Initial residual = 0.0215901411796, Final residual = 1.00667140145e-05, No Iterations 1
DILUPBiCG:  Solving for Uz, Initial residual = 0.0658045601605, Final residual = 3.53576446807e-05, No Iterations 1
GAMG:  Solving for p, Initial residual = 0.105818849061, Final residual = 0.0528198291251, No Iterations 276
time step continuity errors : sum local = 1.33703944619e-05, global = -6.34834710745e-09, cumulative = -1.19511249463e-09
ExecutionTime = 45.97 s  ClockTime = 62 s

Time = 18

DILUPBiCG:  Solving for Ux, Initial residual = 0.0112745842377, Final residual = 3.20635105788e-06, No Iterations 1
DILUPBiCG:  Solving for Uy, Initial residual = 0.0188407836533, Final residual = 8.99529061772e-06, No Iterations 1
DILUPBiCG:  Solving for Uz, Initial residual = 0.0573218396087, Final residual = 2.98448461144e-05, No Iterations 1
GAMG:  Solving for p, Initial residual = 0.0992647969267, Final residual = 0.0496316453022, No Iterations 192
time step continuity errors : sum local = 1.21519929095e-05, global = -3.89013025611e-09, cumulative = -5.08524275074e-09
ExecutionTime = 46.89 s  ClockTime = 63 s

Time = 19

DILUPBiCG:  Solving for Ux, Initial residual = 0.0109813740397, Final residual = 3.18613048671e-06, No Iterations 1
DILUPBiCG:  Solving for Uy, Initial residual = 0.0210897076952, Final residual = 1.02830409887e-05, No Iterations 1
DILUPBiCG:  Solving for Uz, Initial residual = 0.0596168253226, Final residual = 3.18472205792e-05, No Iterations 1
GAMG:  Solving for p, Initial residual = 0.0832133033721, Final residual = 0.0415208769166, No Iterations 202
time step continuity errors : sum local = 1.07807922158e-05, global = 6.22464095916e-09, cumulative = 1.13939820842e-09
ExecutionTime = 47.85 s  ClockTime = 63 s

Time = 20

DILUPBiCG:  Solving for Ux, Initial residual = 0.0106147000596, Final residual = 3.01142002154e-06, No Iterations 1
DILUPBiCG:  Solving for Uy, Initial residual = 0.0216649106828, Final residual = 1.05611621564e-05, No Iterations 1
DILUPBiCG:  Solving for Uz, Initial residual = 0.0514790681141, Final residual = 2.87724429793e-05, No Iterations 1
GAMG:  Solving for p, Initial residual = 0.0781531569204, Final residual = 0.0390086715365, No Iterations 232
time step continuity errors : sum local = 1.08397931602e-05, global = 1.55326578296e-08, cumulative = 1.6672056038e-08
ExecutionTime = 48.94 s  ClockTime = 65 s

Time = 21

DILUPBiCG:  Solving for Ux, Initial residual = 0.0101040627022, Final residual = 2.97698085668e-06, No Iterations 1
DILUPBiCG:  Solving for Uy, Initial residual = 0.0210876827436, Final residual = 1.03078818505e-05, No Iterations 1
DILUPBiCG:  Solving for Uz, Initial residual = 0.044306713673, Final residual = 2.42960305034e-05, No Iterations 1
GAMG:  Solving for p, Initial residual = 0.0704125129631, Final residual = 0.0352057442498, No Iterations 274
time step continuity errors : sum local = 1.00687135495e-05, global = 1.36207899599e-08, cumulative = 3.02928459979e-08
ExecutionTime = 50.23 s  ClockTime = 66 s

Time = 22

DILUPBiCG:  Solving for Ux, Initial residual = 0.00963459341488, Final residual = 2.81906511346e-06, No Iterations 1
DILUPBiCG:  Solving for Uy, Initial residual = 0.0204900804732, Final residual = 9.84848134325e-06, No Iterations 1
DILUPBiCG:  Solving for Uz, Initial residual = 0.0422313476301, Final residual = 2.27931240288e-05, No Iterations 1
GAMG:  Solving for p, Initial residual = 0.0636932231386, Final residual = 0.0317619194539, No Iterations 308
time step continuity errors : sum local = 8.95206901176e-06, global = 4.9352882954e-09, cumulative = 3.52281342933e-08
ExecutionTime = 51.6 s  ClockTime = 67 s

Time = 23

DILUPBiCG:  Solving for Ux, Initial residual = 0.00941501979715, Final residual = 2.88171924727e-06, No Iterations 1
DILUPBiCG:  Solving for Uy, Initial residual = 0.0196583847374, Final residual = 9.77754304183e-06, No Iterations 1
DILUPBiCG:  Solving for Uz, Initial residual = 0.0367075477511, Final residual = 2.14832910009e-05, No Iterations 1
GAMG:  Solving for p, Initial residual = 0.0636813384908, Final residual = 0.0318006018326, No Iterations 304
time step continuity errors : sum local = 8.75345039783e-06, global = -3.72092288758e-09, cumulative = 3.15072114057e-08
ExecutionTime = 52.97 s  ClockTime = 69 s

Time = 24

DILUPBiCG:  Solving for Ux, Initial residual = 0.00918645424024, Final residual = 2.79246778149e-06, No Iterations 1
DILUPBiCG:  Solving for Uy, Initial residual = 0.0185903065928, Final residual = 9.25630781564e-06, No Iterations 1
DILUPBiCG:  Solving for Uz, Initial residual = 0.0319799785573, Final residual = 1.74635944798e-05, No Iterations 1
GAMG:  Solving for p, Initial residual = 0.0577101057979, Final residual = 0.0287262318926, No Iterations 220
time step continuity errors : sum local = 7.64362905739e-06, global = -9.60157488645e-09, cumulative = 2.19056365193e-08
ExecutionTime = 54 s  ClockTime = 70 s

Time = 25

DILUPBiCG:  Solving for Ux, Initial residual = 0.00886935186928, Final residual = 2.68000469777e-06, No Iterations 1
DILUPBiCG:  Solving for Uy, Initial residual = 0.0181689477472, Final residual = 9.06122126492e-06, No Iterations 1
DILUPBiCG:  Solving for Uz, Initial residual = 0.0283141622056, Final residual = 1.53450674653e-05, No Iterations 1
GAMG:  Solving for p, Initial residual = 0.0496218906666, Final residual = 0.0246842395183, No Iterations 164
time step continuity errors : sum local = 6.37267721257e-06, global = -1.39027370703e-08, cumulative = 8.00289944892e-09
ExecutionTime = 54.81 s  ClockTime = 70 s

Time = 26

DILUPBiCG:  Solving for Ux, Initial residual = 0.00847076335928, Final residual = 2.66783333537e-06, No Iterations 1
DILUPBiCG:  Solving for Uy, Initial residual = 0.0175361986344, Final residual = 8.9677618777e-06, No Iterations 1
DILUPBiCG:  Solving for Uz, Initial residual = 0.0277391473729, Final residual = 1.73207409507e-05, No Iterations 1
GAMG:  Solving for p, Initial residual = 0.0487415135111, Final residual = 0.024327046693, No Iterations 312
time step continuity errors : sum local = 6.11719358588e-06, global = -4.35864064149e-09, cumulative = 3.64425880743e-09
ExecutionTime = 56.21 s  ClockTime = 72 s

Time = 27

DILUPBiCG:  Solving for Ux, Initial residual = 0.00792596772836, Final residual = 2.41939299365e-06, No Iterations 1
DILUPBiCG:  Solving for Uy, Initial residual = 0.016814505456, Final residual = 8.36690419478e-06, No Iterations 1
DILUPBiCG:  Solving for Uz, Initial residual = 0.0260195072278, Final residual = 1.48756566311e-05, No Iterations 1
GAMG:  Solving for p, Initial residual = 0.0497390718516, Final residual = 0.0248680982337, No Iterations 384
time step continuity errors : sum local = 5.8636343148e-06, global = 1.51153593101e-09, cumulative = 5.15579473844e-09
ExecutionTime = 58.01 s  ClockTime = 74 s

Time = 28

DILUPBiCG:  Solving for Ux, Initial residual = 0.00728869506891, Final residual = 2.25142823681e-06, No Iterations 1
DILUPBiCG:  Solving for Uy, Initial residual = 0.0161314790517, Final residual = 8.15234936391e-06, No Iterations 1
DILUPBiCG:  Solving for Uz, Initial residual = 0.0190911582472, Final residual = 1.22777899823e-05, No Iterations 1
GAMG:  Solving for p, Initial residual = 0.0546759464811, Final residual = 0.0272838276342, No Iterations 392
time step continuity errors : sum local = 6.00707410313e-06, global = 4.52245112249e-09, cumulative = 9.67824586093e-09
ExecutionTime = 59.89 s  ClockTime = 76 s

Time = 29

DILUPBiCG:  Solving for Ux, Initial residual = 0.0068709046328, Final residual = 2.13124879865e-06, No Iterations 1
DILUPBiCG:  Solving for Uy, Initial residual = 0.0146260096466, Final residual = 7.25244563017e-06, No Iterations 1
DILUPBiCG:  Solving for Uz, Initial residual = 0.0176092972991, Final residual = 1.02073579757e-05, No Iterations 1
GAMG:  Solving for p, Initial residual = 0.048058934755, Final residual = 0.0239769750189, No Iterations 288
time step continuity errors : sum local = 5.02880647391e-06, global = 5.65530939524e-09, cumulative = 1.53335552562e-08
ExecutionTime = 61.4 s  ClockTime = 77 s

Time = 30

DILUPBiCG:  Solving for Ux, Initial residual = 0.00675816358387, Final residual = 2.1134246881e-06, No Iterations 1
DILUPBiCG:  Solving for Uy, Initial residual = 0.0133544186928, Final residual = 6.82446642139e-06, No Iterations 1
DILUPBiCG:  Solving for Uz, Initial residual = 0.0185350796729, Final residual = 1.08103117494e-05, No Iterations 1
GAMG:  Solving for p, Initial residual = 0.0354707295622, Final residual = 0.0177037942817, No Iterations 112
time step continuity errors : sum local = 3.64028203752e-06, global = 3.88585171256e-09, cumulative = 1.92194069687e-08
ExecutionTime = 62.25 s  ClockTime = 78 s

Time = 31

DILUPBiCG:  Solving for Ux, Initial residual = 0.0065395089612, Final residual = 2.03309158027e-06, No Iterations 1
DILUPBiCG:  Solving for Uy, Initial residual = 0.0132711712818, Final residual = 7.24521618808e-06, No Iterations 1
DILUPBiCG:  Solving for Uz, Initial residual = 0.0173040550144, Final residual = 1.13132746397e-05, No Iterations 1
GAMG:  Solving for p, Initial residual = 0.035900113012, Final residual = 0.0179023335188, No Iterations 273
time step continuity errors : sum local = 3.69220968803e-06, global = 1.46412355998e-10, cumulative = 1.93658193247e-08
ExecutionTime = 63.72 s  ClockTime = 80 s

Time = 32

DILUPBiCG:  Solving for Ux, Initial residual = 0.00623998680453, Final residual = 1.92272803926e-06, No Iterations 1
DILUPBiCG:  Solving for Uy, Initial residual = 0.0139660559523, Final residual = 7.30810258581e-06, No Iterations 1
DILUPBiCG:  Solving for Uz, Initial residual = 0.0148719039139, Final residual = 9.14710182397e-06, No Iterations 1
GAMG:  Solving for p, Initial residual = 0.03590028375, Final residual = 0.0179390649356, No Iterations 406
time step continuity errors : sum local = 3.79762262683e-06, global = -1.26118281824e-09, cumulative = 1.81046365065e-08
ExecutionTime = 65.7 s  ClockTime = 83 s

Time = 33

DILUPBiCG:  Solving for Ux, Initial residual = 0.00610679025028, Final residual = 1.92175055682e-06, No Iterations 1
DILUPBiCG:  Solving for Uy, Initial residual = 0.0152901023413, Final residual = 7.98434944404e-06, No Iterations 1
DILUPBiCG:  Solving for Uz, Initial residual = 0.0124748774298, Final residual = 8.15855140477e-06, No Iterations 1
GAMG:  Solving for p, Initial residual = 0.0370570429829, Final residual = 0.0184811198434, No Iterations 416
time step continuity errors : sum local = 4.07166666942e-06, global = -1.66020807084e-09, cumulative = 1.64444284356e-08
ExecutionTime = 67.72 s  ClockTime = 85 s

Time = 34

DILUPBiCG:  Solving for Ux, Initial residual = 0.00606739673356, Final residual = 1.90804583316e-06, No Iterations 1
DILUPBiCG:  Solving for Uy, Initial residual = 0.0156360324892, Final residual = 7.91145261232e-06, No Iterations 1
DILUPBiCG:  Solving for Uz, Initial residual = 0.0113881492405, Final residual = 6.94494738177e-06, No Iterations 1
GAMG:  Solving for p, Initial residual = 0.0307349946083, Final residual = 0.0153517577077, No Iterations 328
time step continuity errors : sum local = 3.443219077e-06, global = -1.02992068635e-09, cumulative = 1.54145077493e-08
ExecutionTime = 69.34 s  ClockTime = 88 s

Time = 35

DILUPBiCG:  Solving for Ux, Initial residual = 0.00597146128539, Final residual = 1.88930911079e-06, No Iterations 1
DILUPBiCG:  Solving for Uy, Initial residual = 0.0150491507455, Final residual = 7.67461357739e-06, No Iterations 1
DILUPBiCG:  Solving for Uz, Initial residual = 0.0114418881429, Final residual = 6.84236255526e-06, No Iterations 1
GAMG:  Solving for p, Initial residual = 0.0215673298393, Final residual = 0.0107574330017, No Iterations 126
time step continuity errors : sum local = 2.37699534126e-06, global = 1.00864528315e-09, cumulative = 1.64231530324e-08
ExecutionTime = 70.09 s  ClockTime = 89 s

Time = 36

DILUPBiCG:  Solving for Ux, Initial residual = 0.00579599318792, Final residual = 1.80920802025e-06, No Iterations 1
DILUPBiCG:  Solving for Uy, Initial residual = 0.0146021241595, Final residual = 7.73080866095e-06, No Iterations 1
DILUPBiCG:  Solving for Uz, Initial residual = 0.0113987778301, Final residual = 7.63958750479e-06, No Iterations 1
GAMG:  Solving for p, Initial residual = 0.0230157647434, Final residual = 0.0114961542299, No Iterations 333
time step continuity errors : sum local = 2.50303970346e-06, global = 1.29348113393e-09, cumulative = 1.77166341664e-08
ExecutionTime = 71.76 s  ClockTime = 91 s

Time = 37

DILUPBiCG:  Solving for Ux, Initial residual = 0.0055356331242, Final residual = 1.7699275566e-06, No Iterations 1
DILUPBiCG:  Solving for Uy, Initial residual = 0.0145095465747, Final residual = 7.56521971657e-06, No Iterations 1
DILUPBiCG:  Solving for Uz, Initial residual = 0.00978041682266, Final residual = 6.24521749774e-06, No Iterations 1
GAMG:  Solving for p, Initial residual = 0.0258883327628, Final residual = 0.0129261345754, No Iterations 458
time step continuity errors : sum local = 2.66415543242e-06, global = 1.27101195166e-09, cumulative = 1.8987646118e-08
ExecutionTime = 73.97 s  ClockTime = 94 s

Time = 38

DILUPBiCG:  Solving for Ux, Initial residual = 0.00524407940692, Final residual = 1.65916236427e-06, No Iterations 1
DILUPBiCG:  Solving for Uy, Initial residual = 0.0135368418265, Final residual = 6.89671705867e-06, No Iterations 1
DILUPBiCG:  Solving for Uz, Initial residual = 0.0080869720772, Final residual = 5.36491873964e-06, No Iterations 1
GAMG:  Solving for p, Initial residual = 0.0271933197097, Final residual = 0.0135959839866, No Iterations 438
time step continuity errors : sum local = 2.60193978845e-06, global = 8.05525736133e-10, cumulative = 1.97931718542e-08
ExecutionTime = 76.18 s  ClockTime = 97 s

Time = 39

DILUPBiCG:  Solving for Ux, Initial residual = 0.0050303981798, Final residual = 1.56196670748e-06, No Iterations 1
DILUPBiCG:  Solving for Uy, Initial residual = 0.0119939018719, Final residual = 6.11027675542e-06, No Iterations 1
DILUPBiCG:  Solving for Uz, Initial residual = 0.00811492259666, Final residual = 5.23337128739e-06, No Iterations 1
GAMG:  Solving for p, Initial residual = 0.0245085123504, Final residual = 0.0122536259535, No Iterations 342
time step continuity errors : sum local = 2.25096297016e-06, global = -4.7654848107e-11, cumulative = 1.97455170061e-08
ExecutionTime = 77.95 s  ClockTime = 99 s

Time = 40

DILUPBiCG:  Solving for Ux, Initial residual = 0.00488488581925, Final residual = 1.51388438295e-06, No Iterations 1
DILUPBiCG:  Solving for Uy, Initial residual = 0.011471363705, Final residual = 6.06924374509e-06, No Iterations 1
DILUPBiCG:  Solving for Uz, Initial residual = 0.00791565874962, Final residual = 4.96675426312e-06, No Iterations 1
GAMG:  Solving for p, Initial residual = 0.0198533833109, Final residual = 0.00989905757598, No Iterations 191
time step continuity errors : sum local = 1.81143755672e-06, global = -1.05862193524e-09, cumulative = 1.86868950708e-08
ExecutionTime = 78.99 s  ClockTime = 100 s

Time = 41

DILUPBiCG:  Solving for Ux, Initial residual = 0.0047592850217, Final residual = 1.43952539134e-06, No Iterations 1
DILUPBiCG:  Solving for Uy, Initial residual = 0.0112128891672, Final residual = 5.96249690754e-06, No Iterations 1
DILUPBiCG:  Solving for Uz, Initial residual = 0.00715854578529, Final residual = 4.69913609209e-06, No Iterations 1
GAMG:  Solving for p, Initial residual = 0.0179843176876, Final residual = 0.00898560447455, No Iterations 268
time step continuity errors : sum local = 1.66222486255e-06, global = -9.21626281079e-10, cumulative = 1.77652687897e-08
ExecutionTime = 80.33 s  ClockTime = 102 s

Time = 42

DILUPBiCG:  Solving for Ux, Initial residual = 0.00464812266446, Final residual = 1.42246956992e-06, No Iterations 1
DILUPBiCG:  Solving for Uy, Initial residual = 0.0118325897409, Final residual = 6.3333159497e-06, No Iterations 1
DILUPBiCG:  Solving for Uz, Initial residual = 0.00654293183955, Final residual = 4.39111958735e-06, No Iterations 1
GAMG:  Solving for p, Initial residual = 0.0175133004584, Final residual = 0.00875236094685, No Iterations 396
time step continuity errors : sum local = 1.65955560459e-06, global = -5.47221570741e-10, cumulative = 1.7218047219e-08
ExecutionTime = 82.27 s  ClockTime = 104 s

Time = 43

DILUPBiCG:  Solving for Ux, Initial residual = 0.00455335913607, Final residual = 1.39371709652e-06, No Iterations 1
DILUPBiCG:  Solving for Uy, Initial residual = 0.0121739224402, Final residual = 6.56157435459e-06, No Iterations 1
DILUPBiCG:  Solving for Uz, Initial residual = 0.00635094709132, Final residual = 4.33786254722e-06, No Iterations 1
GAMG:  Solving for p, Initial residual = 0.0181740173836, Final residual = 0.00907831046702, No Iterations 452
time step continuity errors : sum local = 1.75948916484e-06, global = 1.66332959113e-10, cumulative = 1.73843801781e-08
ExecutionTime = 84.44 s  ClockTime = 107 s

Time = 44

DILUPBiCG:  Solving for Ux, Initial residual = 0.00447305965898, Final residual = 1.36013542607e-06, No Iterations 1
DILUPBiCG:  Solving for Uy, Initial residual = 0.0126887096733, Final residual = 6.60288728851e-06, No Iterations 1
DILUPBiCG:  Solving for Uz, Initial residual = 0.0058531157647, Final residual = 3.87420781904e-06, No Iterations 1
GAMG:  Solving for p, Initial residual = 0.016866189496, Final residual = 0.00841048824814, No Iterations 396
time step continuity errors : sum local = 1.633986949e-06, global = 8.29708104953e-10, cumulative = 1.82140882831e-08
ExecutionTime = 86.43 s  ClockTime = 109 s

Time = 45

DILUPBiCG:  Solving for Ux, Initial residual = 0.00438677193424, Final residual = 1.34598575732e-06, No Iterations 1
DILUPBiCG:  Solving for Uy, Initial residual = 0.0127559735125, Final residual = 6.58019181533e-06, No Iterations 1
DILUPBiCG:  Solving for Uz, Initial residual = 0.00535228891736, Final residual = 3.5296949079e-06, No Iterations 1
GAMG:  Solving for p, Initial residual = 0.0129240855688, Final residual = 0.00646170068402, No Iterations 214
time step continuity errors : sum local = 1.2315568294e-06, global = 1.55803111838e-09, cumulative = 1.97721194014e-08
ExecutionTime = 87.57 s  ClockTime = 111 s

Time = 46

DILUPBiCG:  Solving for Ux, Initial residual = 0.00428311679782, Final residual = 1.29017630007e-06, No Iterations 1
DILUPBiCG:  Solving for Uy, Initial residual = 0.0123302338941, Final residual = 6.64447995288e-06, No Iterations 1
DILUPBiCG:  Solving for Uz, Initial residual = 0.00529529481984, Final residual = 3.74894831327e-06, No Iterations 1
GAMG:  Solving for p, Initial residual = 0.0117593065515, Final residual = 0.00587604582907, No Iterations 308
time step continuity errors : sum local = 1.09856996519e-06, global = 8.419000016e-10, cumulative = 2.0614019403e-08
ExecutionTime = 89.11 s  ClockTime = 113 s

Time = 47

DILUPBiCG:  Solving for Ux, Initial residual = 0.00416487905632, Final residual = 1.24926740537e-06, No Iterations 1
DILUPBiCG:  Solving for Uy, Initial residual = 0.0122779988077, Final residual = 6.59775810841e-06, No Iterations 1
DILUPBiCG:  Solving for Uz, Initial residual = 0.00518074936638, Final residual = 3.6002483015e-06, No Iterations 1
GAMG:  Solving for p, Initial residual = 0.0128522984312, Final residual = 0.00642573684467, No Iterations 452
time step continuity errors : sum local = 1.17048746791e-06, global = 2.28773058105e-10, cumulative = 2.08427924612e-08
ExecutionTime = 91.31 s  ClockTime = 116 s

Time = 48

DILUPBiCG:  Solving for Ux, Initial residual = 0.00403717244565, Final residual = 1.21476830903e-06, No Iterations 1
DILUPBiCG:  Solving for Uy, Initial residual = 0.0114003467899, Final residual = 6.09256276538e-06, No Iterations 1
DILUPBiCG:  Solving for Uz, Initial residual = 0.00440743182985, Final residual = 3.06482171873e-06, No Iterations 1
GAMG:  Solving for p, Initial residual = 0.0141281110155, Final residual = 0.00705688745839, No Iterations 460
time step continuity errors : sum local = 1.24974015936e-06, global = -2.1688898923e-10, cumulative = 2.06259034719e-08
ExecutionTime = 93.48 s  ClockTime = 118 s

Time = 49

DILUPBiCG:  Solving for Ux, Initial residual = 0.0039254627669, Final residual = 1.18526312478e-06, No Iterations 1
DILUPBiCG:  Solving for Uy, Initial residual = 0.0107683603404, Final residual = 5.67232988415e-06, No Iterations 1
DILUPBiCG:  Solving for Uz, Initial residual = 0.00411375695003, Final residual = 2.78749392218e-06, No Iterations 1
GAMG:  Solving for p, Initial residual = 0.0128193005073, Final residual = 0.00640468517668, No Iterations 384
time step continuity errors : sum local = 1.11591573863e-06, global = -4.51069736181e-10, cumulative = 2.01748337357e-08
ExecutionTime = 95.47 s  ClockTime = 121 s

Time = 50

DILUPBiCG:  Solving for Ux, Initial residual = 0.00383197924008, Final residual = 1.13836178472e-06, No Iterations 1
DILUPBiCG:  Solving for Uy, Initial residual = 0.0103111784306, Final residual = 5.48445868589e-06, No Iterations 1
DILUPBiCG:  Solving for Uz, Initial residual = 0.00410710148651, Final residual = 2.82140573786e-06, No Iterations 1
GAMG:  Solving for p, Initial residual = 0.00944196969835, Final residual = 0.00470516165134, No Iterations 142
time step continuity errors : sum local = 8.14402552079e-07, global = -4.1954135046e-10, cumulative = 1.97552923853e-08
ExecutionTime = 96.38 s  ClockTime = 122 s

Time = 51

DILUPBiCG:  Solving for Ux, Initial residual = 0.00374632150517, Final residual = 1.09039228572e-06, No Iterations 1
DILUPBiCG:  Solving for Uy, Initial residual = 0.0100233546404, Final residual = 5.53008667749e-06, No Iterations 1
DILUPBiCG:  Solving for Uz, Initial residual = 0.00403512675832, Final residual = 2.89036120734e-06, No Iterations 1
GAMG:  Solving for p, Initial residual = 0.00836209923888, Final residual = 0.00416511321949, No Iterations 213
time step continuity errors : sum local = 7.19571757876e-07, global = 1.16430796024e-10, cumulative = 1.98717231813e-08
ExecutionTime = 97.51 s  ClockTime = 124 s

Time = 52

DILUPBiCG:  Solving for Ux, Initial residual = 0.00366466131648, Final residual = 1.05225683842e-06, No Iterations 1
DILUPBiCG:  Solving for Uy, Initial residual = 0.0097041701361, Final residual = 5.35235114021e-06, No Iterations 1
DILUPBiCG:  Solving for Uz, Initial residual = 0.00378688085898, Final residual = 2.71299706925e-06, No Iterations 1
GAMG:  Solving for p, Initial residual = 0.00862783417212, Final residual = 0.00430231232339, No Iterations 424
time step continuity errors : sum local = 7.43409259127e-07, global = 2.58512729556e-10, cumulative = 2.01302359109e-08
ExecutionTime = 99.54 s  ClockTime = 126 s

Time = 53

DILUPBiCG:  Solving for Ux, Initial residual = 0.00358857131695, Final residual = 1.05073465665e-06, No Iterations 1
DILUPBiCG:  Solving for Uy, Initial residual = 0.00994360062172, Final residual = 5.3169933412e-06, No Iterations 1
DILUPBiCG:  Solving for Uz, Initial residual = 0.00329747854657, Final residual = 2.3436438872e-06, No Iterations 1
GAMG:  Solving for p, Initial residual = 0.00938066239875, Final residual = 0.00469024337735, No Iterations 460
time step continuity errors : sum local = 8.11903458214e-07, global = 3.45656250435e-10, cumulative = 2.04758921613e-08
ExecutionTime = 101.98 s  ClockTime = 130 s

Time = 54

DILUPBiCG:  Solving for Ux, Initial residual = 0.00351953815421, Final residual = 1.03399859086e-06, No Iterations 1
DILUPBiCG:  Solving for Uy, Initial residual = 0.0102064522413, Final residual = 5.46041453964e-06, No Iterations 1
DILUPBiCG:  Solving for Uz, Initial residual = 0.00324167966228, Final residual = 2.3026616103e-06, No Iterations 1
GAMG:  Solving for p, Initial residual = 0.00862309588622, Final residual = 0.00430616153178, No Iterations 366
time step continuity errors : sum local = 7.44590272101e-07, global = 3.33385625706e-10, cumulative = 2.0809277787e-08
ExecutionTime = 103.75 s  ClockTime = 132 s

Time = 55

DILUPBiCG:  Solving for Ux, Initial residual = 0.00345283047902, Final residual = 1.01206399784e-06, No Iterations 1
DILUPBiCG:  Solving for Uy, Initial residual = 0.0103831654505, Final residual = 5.63468227132e-06, No Iterations 1
DILUPBiCG:  Solving for Uz, Initial residual = 0.00317598735202, Final residual = 2.28531041223e-06, No Iterations 1
GAMG:  Solving for p, Initial residual = 0.00640517086213, Final residual = 0.00319416109429, No Iterations 154
time step continuity errors : sum local = 5.4921961061e-07, global = 2.87771465427e-10, cumulative = 2.10970492524e-08
ExecutionTime = 104.6 s  ClockTime = 133 s

Time = 56

DILUPBiCG:  Solving for Ux, Initial residual = 0.00338460957313, Final residual = 9.70613710389e-07, No Iterations 1
DILUPBiCG:  Solving for Uy, Initial residual = 0.0099754913068, Final residual = 5.50326083181e-06, No Iterations 1
DILUPBiCG:  Solving for Uz, Initial residual = 0.0031098379797, Final residual = 2.29070513649e-06, No Iterations 1
GAMG:  Solving for p, Initial residual = 0.00592430641855, Final residual = 0.00295290240662, No Iterations 292
time step continuity errors : sum local = 5.05222319486e-07, global = 4.16213719554e-11, cumulative = 2.11386706244e-08
ExecutionTime = 106.05 s  ClockTime = 135 s

Time = 57

DILUPBiCG:  Solving for Ux, Initial residual = 0.00331559960539, Final residual = 9.42865486232e-07, No Iterations 1
DILUPBiCG:  Solving for Uy, Initial residual = 0.0101442915096, Final residual = 5.48366714996e-06, No Iterations 1
DILUPBiCG:  Solving for Uz, Initial residual = 0.00299427686388, Final residual = 2.18266124655e-06, No Iterations 1
GAMG:  Solving for p, Initial residual = 0.00604460194686, Final residual = 0.00301695829047, No Iterations 488
time step continuity errors : sum local = 5.10620814719e-07, global = -3.68192847197e-11, cumulative = 2.11018513397e-08
ExecutionTime = 108.38 s  ClockTime = 138 s

Time = 58

DILUPBiCG:  Solving for Ux, Initial residual = 0.00324493261066, Final residual = 9.36577018916e-07, No Iterations 1
DILUPBiCG:  Solving for Uy, Initial residual = 0.00962738157948, Final residual = 5.15855925707e-06, No Iterations 1
DILUPBiCG:  Solving for Uz, Initial residual = 0.00275167311501, Final residual = 2.04076326486e-06, No Iterations 1
GAMG:  Solving for p, Initial residual = 0.0063900917134, Final residual = 0.00318921277173, No Iterations 432
time step continuity errors : sum local = 5.30862730721e-07, global = -2.25456013515e-12, cumulative = 2.10995967795e-08
ExecutionTime = 110.52 s  ClockTime = 141 s

Time = 59

DILUPBiCG:  Solving for Ux, Initial residual = 0.00317782739042, Final residual = 9.20919094349e-07, No Iterations 1
DILUPBiCG:  Solving for Uy, Initial residual = 0.00936435150768, Final residual = 5.10821929997e-06, No Iterations 1
DILUPBiCG:  Solving for Uz, Initial residual = 0.00269756456482, Final residual = 1.97932611321e-06, No Iterations 1
GAMG:  Solving for p, Initial residual = 0.00610599745834, Final residual = 0.00305100618628, No Iterations 388
time step continuity errors : sum local = 5.01232076161e-07, global = 8.92750928171e-11, cumulative = 2.11888718723e-08
ExecutionTime = 112.48 s  ClockTime = 144 s

Time = 60

DILUPBiCG:  Solving for Ux, Initial residual = 0.00311463512517, Final residual = 8.96641284478e-07, No Iterations 1
DILUPBiCG:  Solving for Uy, Initial residual = 0.00924725033745, Final residual = 5.0903981215e-06, No Iterations 1
DILUPBiCG:  Solving for Uz, Initial residual = 0.0025491456663, Final residual = 1.88069068488e-06, No Iterations 1
GAMG:  Solving for p, Initial residual = 0.00475289830413, Final residual = 0.00237374707578, No Iterations 240
time step continuity errors : sum local = 3.86365795627e-07, global = 2.70650866059e-10, cumulative = 2.14595227384e-08
ExecutionTime = 113.82 s  ClockTime = 146 s

Time = 61

DILUPBiCG:  Solving for Ux, Initial residual = 0.00305433173513, Final residual = 8.64294511547e-07, No Iterations 1
DILUPBiCG:  Solving for Uy, Initial residual = 0.00918107872892, Final residual = 5.05220495324e-06, No Iterations 1
DILUPBiCG:  Solving for Uz, Initial residual = 0.00250306509338, Final residual = 1.87482982601e-06, No Iterations 1
GAMG:  Solving for p, Initial residual = 0.00422439601042, Final residual = 0.00210537548268, No Iterations 239
time step continuity errors : sum local = 3.41107572934e-07, global = 2.14727011811e-10, cumulative = 2.16742497502e-08
ExecutionTime = 115.14 s  ClockTime = 147 s

Time = 62

DILUPBiCG:  Solving for Ux, Initial residual = 0.00299605921387, Final residual = 8.49661592607e-07, No Iterations 1
DILUPBiCG:  Solving for Uy, Initial residual = 0.00904372062081, Final residual = 5.06179113823e-06, No Iterations 1
DILUPBiCG:  Solving for Uz, Initial residual = 0.00243373255344, Final residual = 1.82318824703e-06, No Iterations 1
GAMG:  Solving for p, Initial residual = 0.00389436601178, Final residual = 0.00194718041526, No Iterations 322
time step continuity errors : sum local = 3.14435976693e-07, global = 2.39412202183e-10, cumulative = 2.19136619524e-08
ExecutionTime = 116.8 s  ClockTime = 149 s

Time = 63

DILUPBiCG:  Solving for Ux, Initial residual = 0.00293912859819, Final residual = 8.29667997694e-07, No Iterations 1
DILUPBiCG:  Solving for Uy, Initial residual = 0.00911801631869, Final residual = 5.07056937803e-06, No Iterations 1
DILUPBiCG:  Solving for Uz, Initial residual = 0.00229104779863, Final residual = 1.72209422485e-06, No Iterations 1
GAMG:  Solving for p, Initial residual = 0.004354507346, Final residual = 0.00217315888299, No Iterations 444
time step continuity errors : sum local = 3.50168029048e-07, global = 1.17455448216e-10, cumulative = 2.20311174006e-08
ExecutionTime = 118.93 s  ClockTime = 152 s

Time = 64

DILUPBiCG:  Solving for Ux, Initial residual = 0.00288482142358, Final residual = 8.14974735933e-07, No Iterations 1
DILUPBiCG:  Solving for Uy, Initial residual = 0.00908698380126, Final residual = 4.92458768191e-06, No Iterations 1
DILUPBiCG:  Solving for Uz, Initial residual = 0.00223265732646, Final residual = 1.67854914323e-06, No Iterations 1
GAMG:  Solving for p, Initial residual = 0.00415217757091, Final residual = 0.00207467286227, No Iterations 414
time step continuity errors : sum local = 3.33777725165e-07, global = 3.45534076037e-11, cumulative = 2.20656708082e-08
ExecutionTime = 120.91 s  ClockTime = 154 s

Time = 65

DILUPBiCG:  Solving for Ux, Initial residual = 0.00283377474224, Final residual = 7.98216354149e-07, No Iterations 1
DILUPBiCG:  Solving for Uy, Initial residual = 0.00897110854857, Final residual = 4.89800146609e-06, No Iterations 1
DILUPBiCG:  Solving for Uz, Initial residual = 0.00214775611063, Final residual = 1.63318008879e-06, No Iterations 1
GAMG:  Solving for p, Initial residual = 0.00333706260738, Final residual = 0.00166707172065, No Iterations 230
time step continuity errors : sum local = 2.67530420925e-07, global = 1.68300216959e-12, cumulative = 2.20673538104e-08
ExecutionTime = 122.07 s  ClockTime = 156 s

Time = 66

DILUPBiCG:  Solving for Ux, Initial residual = 0.00278468140599, Final residual = 7.78737096073e-07, No Iterations 1
DILUPBiCG:  Solving for Uy, Initial residual = 0.00881049903184, Final residual = 4.96821974396e-06, No Iterations 1
DILUPBiCG:  Solving for Uz, Initial residual = 0.00211482692203, Final residual = 1.61979294665e-06, No Iterations 1
GAMG:  Solving for p, Initial residual = 0.0028366268341, Final residual = 0.00141725169446, No Iterations 260
time step continuity errors : sum local = 2.26699479442e-07, global = 2.00387197101e-11, cumulative = 2.20873925301e-08
ExecutionTime = 123.38 s  ClockTime = 157 s

Time = 67

DILUPBiCG:  Solving for Ux, Initial residual = 0.0027364844866, Final residual = 7.70499207845e-07, No Iterations 1
DILUPBiCG:  Solving for Uy, Initial residual = 0.00892786589225, Final residual = 4.88534837186e-06, No Iterations 1
DILUPBiCG:  Solving for Uz, Initial residual = 0.00209145156064, Final residual = 1.60638584131e-06, No Iterations 1
GAMG:  Solving for p, Initial residual = 0.00284755791504, Final residual = 0.00142062353633, No Iterations 494
time step continuity errors : sum local = 2.25922462722e-07, global = 3.11833883569e-11, cumulative = 2.21185759185e-08
ExecutionTime = 125.81 s  ClockTime = 160 s

Time = 68

DILUPBiCG:  Solving for Ux, Initial residual = 0.00268923753478, Final residual = 7.6064560151e-07, No Iterations 1
DILUPBiCG:  Solving for Uy, Initial residual = 0.0088620586702, Final residual = 4.84848217024e-06, No Iterations 1
DILUPBiCG:  Solving for Uz, Initial residual = 0.00199064001212, Final residual = 1.53987703993e-06, No Iterations 1
GAMG:  Solving for p, Initial residual = 0.00318474904202, Final residual = 0.00159086764636, No Iterations 478
time step continuity errors : sum local = 2.50237459914e-07, global = 8.22351782899e-11, cumulative = 2.22008110967e-08
ExecutionTime = 128.1 s  ClockTime = 164 s

Time = 69

DILUPBiCG:  Solving for Ux, Initial residual = 0.00264314800887, Final residual = 7.51358819805e-07, No Iterations 1
DILUPBiCG:  Solving for Uy, Initial residual = 0.00878238433625, Final residual = 4.8183380212e-06, No Iterations 1
DILUPBiCG:  Solving for Uz, Initial residual = 0.0019016721775, Final residual = 1.46981966022e-06, No Iterations 1
GAMG:  Solving for p, Initial residual = 0.00311006400363, Final residual = 0.00155135602396, No Iterations 428
time step continuity errors : sum local = 2.4153978877e-07, global = 1.17494138975e-10, cumulative = 2.23183052357e-08
ExecutionTime = 130.16 s  ClockTime = 166 s

Time = 70

DILUPBiCG:  Solving for Ux, Initial residual = 0.00259802307034, Final residual = 7.37809848705e-07, No Iterations 1
DILUPBiCG:  Solving for Uy, Initial residual = 0.00875863881403, Final residual = 4.82927679495e-06, No Iterations 1
DILUPBiCG:  Solving for Uz, Initial residual = 0.00185209246631, Final residual = 1.44397671581e-06, No Iterations 1
GAMG:  Solving for p, Initial residual = 0.00244646078737, Final residual = 0.00121998594148, No Iterations 284
time step continuity errors : sum local = 1.88562169281e-07, global = 1.63303530398e-10, cumulative = 2.24816087661e-08
ExecutionTime = 131.68 s  ClockTime = 168 s

Time = 71

DILUPBiCG:  Solving for Ux, Initial residual = 0.00255395987615, Final residual = 7.22080857319e-07, No Iterations 1
DILUPBiCG:  Solving for Uy, Initial residual = 0.00838597856643, Final residual = 4.7564906612e-06, No Iterations 1
DILUPBiCG:  Solving for Uz, Initial residual = 0.00183251282697, Final residual = 1.43904237589e-06, No Iterations 1
GAMG:  Solving for p, Initial residual = 0.00184674061202, Final residual = 0.000922158514363, No Iterations 156
time step continuity errors : sum local = 1.41977084547e-07, global = 2.63896149577e-10, cumulative = 2.27455049157e-08
ExecutionTime = 132.6 s  ClockTime = 169 s

Time = 72

DILUPBiCG:  Solving for Ux, Initial residual = 0.00251082545473, Final residual = 7.05908671574e-07, No Iterations 1
DILUPBiCG:  Solving for Uy, Initial residual = 0.00817042551754, Final residual = 4.63840029962e-06, No Iterations 1
DILUPBiCG:  Solving for Uz, Initial residual = 0.00179707522147, Final residual = 1.41770699814e-06, No Iterations 1
GAMG:  Solving for p, Initial residual = 0.00176258227372, Final residual = 0.000880548410697, No Iterations 245
time step continuity errors : sum local = 1.35272915276e-07, global = 1.60179107419e-10, cumulative = 2.29056840231e-08
ExecutionTime = 133.96 s  ClockTime = 171 s

Time = 73

DILUPBiCG:  Solving for Ux, Initial residual = 0.00246899281229, Final residual = 6.91480335677e-07, No Iterations 1
DILUPBiCG:  Solving for Uy, Initial residual = 0.00831434703537, Final residual = 4.74867220574e-06, No Iterations 1
DILUPBiCG:  Solving for Uz, Initial residual = 0.00172645483123, Final residual = 1.36360565023e-06, No Iterations 1
GAMG:  Solving for p, Initial residual = 0.0020594618373, Final residual = 0.00102764524182, No Iterations 474
time step continuity errors : sum local = 1.57511042013e-07, global = 6.18463562094e-11, cumulative = 2.29675303793e-08
ExecutionTime = 136.33 s  ClockTime = 175 s

Time = 74

DILUPBiCG:  Solving for Ux, Initial residual = 0.00242819344886, Final residual = 6.77554359277e-07, No Iterations 1
DILUPBiCG:  Solving for Uy, Initial residual = 0.00833497802767, Final residual = 4.70686713278e-06, No Iterations 1
DILUPBiCG:  Solving for Uz, Initial residual = 0.00164358518623, Final residual = 1.30621243396e-06, No Iterations 1
GAMG:  Solving for p, Initial residual = 0.00206581663262, Final residual = 0.00103044490285, No Iterations 424
time step continuity errors : sum local = 1.57366948243e-07, global = 5.05083930364e-11, cumulative = 2.30180387724e-08
ExecutionTime = 138.39 s  ClockTime = 178 s

Time = 75

DILUPBiCG:  Solving for Ux, Initial residual = 0.00238899548625, Final residual = 6.68409733147e-07, No Iterations 1
DILUPBiCG:  Solving for Uy, Initial residual = 0.00829600306355, Final residual = 4.6484589787e-06, No Iterations 1
DILUPBiCG:  Solving for Uz, Initial residual = 0.00163017086728, Final residual = 1.30785586217e-06, No Iterations 1
GAMG:  Solving for p, Initial residual = 0.00166988634652, Final residual = 0.000832297884846, No Iterations 230
time step continuity errors : sum local = 1.26613504623e-07, global = 7.91618474642e-11, cumulative = 2.30972006198e-08
ExecutionTime = 139.61 s  ClockTime = 179 s

Time = 76

DILUPBiCG:  Solving for Ux, Initial residual = 0.00235114819585, Final residual = 6.57465756371e-07, No Iterations 1
DILUPBiCG:  Solving for Uy, Initial residual = 0.00809782347093, Final residual = 4.56533363574e-06, No Iterations 1
DILUPBiCG:  Solving for Uz, Initial residual = 0.00160549305728, Final residual = 1.2940943528e-06, No Iterations 1
GAMG:  Solving for p, Initial residual = 0.00127962925515, Final residual = 0.000638603710914, No Iterations 264
time step continuity errors : sum local = 9.68372230781e-08, global = 7.86186436941e-11, cumulative = 2.31758192635e-08
ExecutionTime = 141 s  ClockTime = 181 s

Time = 77

DILUPBiCG:  Solving for Ux, Initial residual = 0.00231464617335, Final residual = 6.49232847336e-07, No Iterations 1
DILUPBiCG:  Solving for Uy, Initial residual = 0.00826408269417, Final residual = 4.63069166253e-06, No Iterations 1
DILUPBiCG:  Solving for Uz, Initial residual = 0.00159822317267, Final residual = 1.29205583217e-06, No Iterations 1
GAMG:  Solving for p, Initial residual = 0.00145153230303, Final residual = 0.000724607066456, No Iterations 530
time step continuity errors : sum local = 1.09408129187e-07, global = 4.5667941845e-11, cumulative = 2.32214872054e-08
ExecutionTime = 143.62 s  ClockTime = 185 s

Time = 78

DILUPBiCG:  Solving for Ux, Initial residual = 0.00227976130621, Final residual = 6.41915381602e-07, No Iterations 1
DILUPBiCG:  Solving for Uy, Initial residual = 0.00829431202473, Final residual = 4.54285314716e-06, No Iterations 1
DILUPBiCG:  Solving for Uz, Initial residual = 0.00152681649565, Final residual = 1.23733864464e-06, No Iterations 1
GAMG:  Solving for p, Initial residual = 0.00158994220191, Final residual = 0.000793283230797, No Iterations 492
time step continuity errors : sum local = 1.18877304179e-07, global = 5.21272870026e-11, cumulative = 2.32736144924e-08
ExecutionTime = 146.13 s  ClockTime = 188 s

Time = 79

DILUPBiCG:  Solving for Ux, Initial residual = 0.00224525145591, Final residual = 6.33264388055e-07, No Iterations 1
DILUPBiCG:  Solving for Uy, Initial residual = 0.00830912430741, Final residual = 4.61460897426e-06, No Iterations 1
DILUPBiCG:  Solving for Uz, Initial residual = 0.00146350402725, Final residual = 1.19535548617e-06, No Iterations 1
GAMG:  Solving for p, Initial residual = 0.00151959309705, Final residual = 0.000759411691438, No Iterations 416
time step continuity errors : sum local = 1.13064040345e-07, global = 5.55009739506e-11, cumulative = 2.33291154663e-08
ExecutionTime = 148.15 s  ClockTime = 191 s

Time = 80

DILUPBiCG:  Solving for Ux, Initial residual = 0.00221108648134, Final residual = 6.23632574114e-07, No Iterations 1
DILUPBiCG:  Solving for Uy, Initial residual = 0.00808638213889, Final residual = 4.58256567726e-06, No Iterations 1
DILUPBiCG:  Solving for Uz, Initial residual = 0.00145500467421, Final residual = 1.19640302844e-06, No Iterations 1
GAMG:  Solving for p, Initial residual = 0.00118448518152, Final residual = 0.000592223969548, No Iterations 278
time step continuity errors : sum local = 8.77750200834e-08, global = 7.76557727042e-11, cumulative = 2.3406771239e-08
ExecutionTime = 149.61 s  ClockTime = 193 s

Time = 81

DILUPBiCG:  Solving for Ux, Initial residual = 0.00217745645528, Final residual = 6.11127369696e-07, No Iterations 1
DILUPBiCG:  Solving for Uy, Initial residual = 0.00795798125235, Final residual = 4.48968074464e-06, No Iterations 1
DILUPBiCG:  Solving for Uz, Initial residual = 0.00144346494407, Final residual = 1.19253705605e-06, No Iterations 1
GAMG:  Solving for p, Initial residual = 0.000830033412754, Final residual = 0.000414580013583, No Iterations 138
time step continuity errors : sum local = 6.12646791106e-08, global = 1.5246741461e-10, cumulative = 2.35592386536e-08
ExecutionTime = 150.42 s  ClockTime = 194 s

Time = 82

DILUPBiCG:  Solving for Ux, Initial residual = 0.00214472874421, Final residual = 6.00133912512e-07, No Iterations 1
DILUPBiCG:  Solving for Uy, Initial residual = 0.00777656995491, Final residual = 4.4522893432e-06, No Iterations 1
DILUPBiCG:  Solving for Uz, Initial residual = 0.0014386794795, Final residual = 1.19170886393e-06, No Iterations 1
GAMG:  Solving for p, Initial residual = 0.000917333349008, Final residual = 0.000457530222468, No Iterations 282
time step continuity errors : sum local = 6.74732676454e-08, global = 1.10658284114e-10, cumulative = 2.36698969377e-08
ExecutionTime = 151.9 s  ClockTime = 196 s

Time = 83

DILUPBiCG:  Solving for Ux, Initial residual = 0.0021132681635, Final residual = 5.91426348491e-07, No Iterations 1
DILUPBiCG:  Solving for Uy, Initial residual = 0.00795624319669, Final residual = 4.48352749165e-06, No Iterations 1
DILUPBiCG:  Solving for Uz, Initial residual = 0.00137764403507, Final residual = 1.14661855172e-06, No Iterations 1
GAMG:  Solving for p, Initial residual = 0.00114715660766, Final residual = 0.000573508719026, No Iterations 362
time step continuity errors : sum local = 8.4276505052e-08, global = 9.01572719866e-11, cumulative = 2.37600542097e-08
ExecutionTime = 153.69 s  ClockTime = 199 s

Time = 84

DILUPBiCG:  Solving for Ux, Initial residual = 0.00208248838159, Final residual = 5.8033468983e-07, No Iterations 1
DILUPBiCG:  Solving for Uy, Initial residual = 0.00799162633054, Final residual = 4.46558167373e-06, No Iterations 1
DILUPBiCG:  Solving for Uz, Initial residual = 0.00133474989169, Final residual = 1.11971505322e-06, No Iterations 1
GAMG:  Solving for p, Initial residual = 0.00110747863615, Final residual = 0.000551711248375, No Iterations 348
time step continuity errors : sum local = 8.07046525495e-08, global = 7.76691957468e-11, cumulative = 2.38377234055e-08
ExecutionTime = 155.41 s  ClockTime = 201 s

Time = 85

DILUPBiCG:  Solving for Ux, Initial residual = 0.00205208766183, Final residual = 5.72074303358e-07, No Iterations 1
DILUPBiCG:  Solving for Uy, Initial residual = 0.007947849467, Final residual = 4.48287971988e-06, No Iterations 1
DILUPBiCG:  Solving for Uz, Initial residual = 0.00133320878064, Final residual = 1.12472762128e-06, No Iterations 1
GAMG:  Solving for p, Initial residual = 0.000885232278746, Final residual = 0.000442177124382, No Iterations 234
time step continuity errors : sum local = 6.44109484036e-08, global = 8.55009098214e-11, cumulative = 2.39232243153e-08
ExecutionTime = 156.65 s  ClockTime = 203 s

Time = 86

DILUPBiCG:  Solving for Ux, Initial residual = 0.00202231906478, Final residual = 5.64683382409e-07, No Iterations 1
DILUPBiCG:  Solving for Uy, Initial residual = 0.00773014552711, Final residual = 4.37635558854e-06, No Iterations 1
DILUPBiCG:  Solving for Uz, Initial residual = 0.00131251949613, Final residual = 1.1125193082e-06, No Iterations 1
GAMG:  Solving for p, Initial residual = 0.000709412819684, Final residual = 0.00035349292972, No Iterations 312
time step continuity errors : sum local = 5.13354829321e-08, global = 5.75164347707e-11, cumulative = 2.39807407501e-08
ExecutionTime = 158.19 s  ClockTime = 205 s

Time = 87

DILUPBiCG:  Solving for Ux, Initial residual = 0.00199354171739, Final residual = 5.58506236531e-07, No Iterations 1
DILUPBiCG:  Solving for Uy, Initial residual = 0.00786606974507, Final residual = 4.46111117066e-06, No Iterations 1
DILUPBiCG:  Solving for Uz, Initial residual = 0.00129895067819, Final residual = 1.1049746388e-06, No Iterations 1
GAMG:  Solving for p, Initial residual = 0.00077778754274, Final residual = 0.000388057531791, No Iterations 482
time step continuity errors : sum local = 5.61597517521e-08, global = 3.28360677671e-11, cumulative = 2.40135768178e-08
ExecutionTime = 160.58 s  ClockTime = 208 s

Time = 88

DILUPBiCG:  Solving for Ux, Initial residual = 0.00196586095018, Final residual = 5.50516874453e-07, No Iterations 1
DILUPBiCG:  Solving for Uy, Initial residual = 0.00779709516065, Final residual = 4.37572621198e-06, No Iterations 1
DILUPBiCG:  Solving for Uz, Initial residual = 0.00126213368464, Final residual = 1.07868627824e-06, No Iterations 1
GAMG:  Solving for p, Initial residual = 0.000846204486478, Final residual = 0.000422426589573, No Iterations 468
time step continuity errors : sum local = 6.0861740577e-08, global = 3.26072969905e-11, cumulative = 2.40461841148e-08
ExecutionTime = 162.83 s  ClockTime = 211 s

Time = 89

DILUPBiCG:  Solving for Ux, Initial residual = 0.00193870566678, Final residual = 5.44377479183e-07, No Iterations 1
DILUPBiCG:  Solving for Uy, Initial residual = 0.00771541109082, Final residual = 4.30501693193e-06, No Iterations 1
DILUPBiCG:  Solving for Uz, Initial residual = 0.00123048655092, Final residual = 1.06050617537e-06, No Iterations 1
GAMG:  Solving for p, Initial residual = 0.00083068785617, Final residual = 0.000414877176287, No Iterations 432
time step continuity errors : sum local = 5.95305701207e-08, global = 3.57192991895e-11, cumulative = 2.4081903414e-08
ExecutionTime = 165 s  ClockTime = 214 s

Time = 90

DILUPBiCG:  Solving for Ux, Initial residual = 0.0019118952468, Final residual = 5.34970590223e-07, No Iterations 1
DILUPBiCG:  Solving for Uy, Initial residual = 0.00773328104118, Final residual = 4.33592653956e-06, No Iterations 1
DILUPBiCG:  Solving for Uz, Initial residual = 0.00121809654752, Final residual = 1.05643671198e-06, No Iterations 1
GAMG:  Solving for p, Initial residual = 0.000717110349749, Final residual = 0.000357964571586, No Iterations 352
time step continuity errors : sum local = 5.11814008001e-08, global = 4.7704508058e-11, cumulative = 2.41296079221e-08
ExecutionTime = 166.83 s  ClockTime = 216 s

Time = 91

DILUPBiCG:  Solving for Ux, Initial residual = 0.00188553383471, Final residual = 5.28444358139e-07, No Iterations 1
DILUPBiCG:  Solving for Uy, Initial residual = 0.00764439434391, Final residual = 4.332836873e-06, No Iterations 1
DILUPBiCG:  Solving for Uz, Initial residual = 0.00120858245023, Final residual = 1.05280262576e-06, No Iterations 1
GAMG:  Solving for p, Initial residual = 0.000579410857928, Final residual = 0.000289406763946, No Iterations 294
time step continuity errors : sum local = 4.12529531031e-08, global = 6.21512388442e-11, cumulative = 2.41917591609e-08
ExecutionTime = 168.36 s  ClockTime = 218 s

Time = 92

DILUPBiCG:  Solving for Ux, Initial residual = 0.00185990768015, Final residual = 5.20026990059e-07, No Iterations 1
DILUPBiCG:  Solving for Uy, Initial residual = 0.00747190503995, Final residual = 4.19984183815e-06, No Iterations 1
DILUPBiCG:  Solving for Uz, Initial residual = 0.00119222350301, Final residual = 1.04299704065e-06, No Iterations 1
GAMG:  Solving for p, Initial residual = 0.000587332653186, Final residual = 0.000293581083334, No Iterations 260
time step continuity errors : sum local = 4.17255260981e-08, global = 8.24598060132e-11, cumulative = 2.42742189669e-08
ExecutionTime = 169.76 s  ClockTime = 220 s

Time = 93

DILUPBiCG:  Solving for Ux, Initial residual = 0.0018349457297, Final residual = 5.1420105919e-07, No Iterations 1
DILUPBiCG:  Solving for Uy, Initial residual = 0.00747605364464, Final residual = 4.2825342842e-06, No Iterations 1
DILUPBiCG:  Solving for Uz, Initial residual = 0.00116631187441, Final residual = 1.02564360708e-06, No Iterations 1
GAMG:  Solving for p, Initial residual = 0.000689021429531, Final residual = 0.000343425273951, No Iterations 300
time step continuity errors : sum local = 4.86651884482e-08, global = 7.50729874263e-11, cumulative = 2.43492919544e-08
ExecutionTime = 171.35 s  ClockTime = 223 s

Time = 94

DILUPBiCG:  Solving for Ux, Initial residual = 0.00181063448727, Final residual = 5.07270891856e-07, No Iterations 1
DILUPBiCG:  Solving for Uy, Initial residual = 0.00742947420104, Final residual = 4.2079219588e-06, No Iterations 1
DILUPBiCG:  Solving for Uz, Initial residual = 0.00114027427153, Final residual = 1.01017165785e-06, No Iterations 1
GAMG:  Solving for p, Initial residual = 0.00069774517876, Final residual = 0.000347199837632, No Iterations 298
time step continuity errors : sum local = 4.90244321803e-08, global = 6.93842593289e-11, cumulative = 2.44186762137e-08
ExecutionTime = 172.85 s  ClockTime = 224 s

Time = 95

DILUPBiCG:  Solving for Ux, Initial residual = 0.00178684611642, Final residual = 4.98425158789e-07, No Iterations 1
DILUPBiCG:  Solving for Uy, Initial residual = 0.00744651626932, Final residual = 4.21213315257e-06, No Iterations 1
DILUPBiCG:  Solving for Uz, Initial residual = 0.00113061839729, Final residual = 1.00784487944e-06, No Iterations 1
GAMG:  Solving for p, Initial residual = 0.000606964562944, Final residual = 0.000302378036106, No Iterations 306
time step continuity errors : sum local = 4.2540324314e-08, global = 5.78571717004e-11, cumulative = 2.44765333854e-08
ExecutionTime = 174.39 s  ClockTime = 226 s

Time = 96

DILUPBiCG:  Solving for Ux, Initial residual = 0.00176356823486, Final residual = 4.92649744665e-07, No Iterations 1
DILUPBiCG:  Solving for Uy, Initial residual = 0.00754228550069, Final residual = 4.2902798406e-06, No Iterations 1
DILUPBiCG:  Solving for Uz, Initial residual = 0.00112252817521, Final residual = 1.00490017606e-06, No Iterations 1
GAMG:  Solving for p, Initial residual = 0.00053968192379, Final residual = 0.000269824296834, No Iterations 376
time step continuity errors : sum local = 3.78298192958e-08, global = 3.90560805481e-11, cumulative = 2.45155894659e-08
ExecutionTime = 176.21 s  ClockTime = 228 s

Time = 97

DILUPBiCG:  Solving for Ux, Initial residual = 0.00174074737997, Final residual = 4.87542018731e-07, No Iterations 1
DILUPBiCG:  Solving for Uy, Initial residual = 0.00741467499079, Final residual = 4.15782901913e-06, No Iterations 1
DILUPBiCG:  Solving for Uz, Initial residual = 0.00110835213333, Final residual = 9.96056684735e-07, No Iterations 1
GAMG:  Solving for p, Initial residual = 0.000546375731654, Final residual = 0.000272631647723, No Iterations 430
time step continuity errors : sum local = 3.80946996154e-08, global = 2.92537661973e-11, cumulative = 2.45448432321e-08
ExecutionTime = 178.37 s  ClockTime = 231 s

Time = 98

DILUPBiCG:  Solving for Ux, Initial residual = 0.00171832112962, Final residual = 4.81391116038e-07, No Iterations 1
DILUPBiCG:  Solving for Uy, Initial residual = 0.00734574032064, Final residual = 4.15219871991e-06, No Iterations 1
DILUPBiCG:  Solving for Uz, Initial residual = 0.00108661968883, Final residual = 9.82215097511e-07, No Iterations 1
GAMG:  Solving for p, Initial residual = 0.000575239712369, Final residual = 0.000287545495829, No Iterations 412
time step continuity errors : sum local = 4.00549940152e-08, global = 3.0086354616e-11, cumulative = 2.45749295868e-08
ExecutionTime = 180.4 s  ClockTime = 234 s

Time = 99

DILUPBiCG:  Solving for Ux, Initial residual = 0.00169628056637, Final residual = 4.7524211612e-07, No Iterations 1
DILUPBiCG:  Solving for Uy, Initial residual = 0.00731062721274, Final residual = 4.12968277917e-06, No Iterations 1
DILUPBiCG:  Solving for Uz, Initial residual = 0.00106553517782, Final residual = 9.69824257177e-07, No Iterations 1
GAMG:  Solving for p, Initial residual = 0.000563184264894, Final residual = 0.000280719639556, No Iterations 412
time step continuity errors : sum local = 3.89964630698e-08, global = 3.21914377699e-11, cumulative = 2.46071210245e-08
ExecutionTime = 182.36 s  ClockTime = 236 s

Time = 100

DILUPBiCG:  Solving for Ux, Initial residual = 0.0016746559908, Final residual = 4.69371487374e-07, No Iterations 1
DILUPBiCG:  Solving for Uy, Initial residual = 0.00740449031164, Final residual = 4.13978348417e-06, No Iterations 1
DILUPBiCG:  Solving for Uz, Initial residual = 0.00105613868229, Final residual = 9.67751760255e-07, No Iterations 1
GAMG:  Solving for p, Initial residual = 0.000505033148444, Final residual = 0.000252327177308, No Iterations 406
time step continuity errors : sum local = 3.49537544552e-08, global = 3.52229188552e-11, cumulative = 2.46423439434e-08
ExecutionTime = 184.44 s  ClockTime = 238 s

Time = 101

DILUPBiCG:  Solving for Ux, Initial residual = 0.00165340845023, Final residual = 4.65591438255e-07, No Iterations 1
DILUPBiCG:  Solving for Uy, Initial residual = 0.00726199924436, Final residual = 4.11451244026e-06, No Iterations 1
DILUPBiCG:  Solving for Uz, Initial residual = 0.00104799167413, Final residual = 9.6497564588e-07, No Iterations 1
GAMG:  Solving for p, Initial residual = 0.000454904612925, Final residual = 0.000226692900218, No Iterations 382
time step continuity errors : sum local = 3.13092541559e-08, global = 3.85461839719e-11, cumulative = 2.46808901273e-08
ExecutionTime = 186.3 s  ClockTime = 241 s

Time = 102

DILUPBiCG:  Solving for Ux, Initial residual = 0.00163251473736, Final residual = 4.59331584225e-07, No Iterations 1
DILUPBiCG:  Solving for Uy, Initial residual = 0.0072023810654, Final residual = 4.0668195971e-06, No Iterations 1
DILUPBiCG:  Solving for Uz, Initial residual = 0.00103312345986, Final residual = 9.56146653855e-07, No Iterations 1
GAMG:  Solving for p, Initial residual = 0.000455625743661, Final residual = 0.000227255434203, No Iterations 318
time step continuity errors : sum local = 3.12914449636e-08, global = 4.77547167483e-11, cumulative = 2.47286448441e-08
ExecutionTime = 187.85 s  ClockTime = 243 s

Time = 103

DILUPBiCG:  Solving for Ux, Initial residual = 0.00161208340756, Final residual = 4.5413044923e-07, No Iterations 1
DILUPBiCG:  Solving for Uy, Initial residual = 0.00719204130784, Final residual = 4.09670086946e-06, No Iterations 1
DILUPBiCG:  Solving for Uz, Initial residual = 0.00101426671709, Final residual = 9.44053280886e-07, No Iterations 1
GAMG:  Solving for p, Initial residual = 0.000483806097069, Final residual = 0.000241474860423, No Iterations 314
time step continuity errors : sum local = 3.31551585178e-08, global = 4.80701417898e-11, cumulative = 2.47767149859e-08
ExecutionTime = 189.4 s  ClockTime = 245 s

Time = 104

DILUPBiCG:  Solving for Ux, Initial residual = 0.00159232412172, Final residual = 4.49730231366e-07, No Iterations 1
DILUPBiCG:  Solving for Uy, Initial residual = 0.00723331075133, Final residual = 4.09941610508e-06, No Iterations 1
DILUPBiCG:  Solving for Uz, Initial residual = 0.000997568475767, Final residual = 9.34989603774e-07, No Iterations 1
GAMG:  Solving for p, Initial residual = 0.000481409851488, Final residual = 0.00024054775927, No Iterations 320
time step continuity errors : sum local = 3.29320112125e-08, global = 4.60209095734e-11, cumulative = 2.48227358955e-08
ExecutionTime = 190.97 s  ClockTime = 247 s

Time = 105

DILUPBiCG:  Solving for Ux, Initial residual = 0.00157299098286, Final residual = 4.43759317364e-07, No Iterations 1
DILUPBiCG:  Solving for Uy, Initial residual = 0.0070761157554, Final residual = 4.00621347336e-06, No Iterations 1
DILUPBiCG:  Solving for Uz, Initial residual = 0.000988657474627, Final residual = 9.32563322606e-07, No Iterations 1
GAMG:  Solving for p, Initial residual = 0.000442782691244, Final residual = 0.000220823866385, No Iterations 356
time step continuity errors : sum local = 3.01416905344e-08, global = 3.87489318924e-11, cumulative = 2.48614848274e-08
ExecutionTime = 192.71 s  ClockTime = 249 s

Time = 106

DILUPBiCG:  Solving for Ux, Initial residual = 0.00155412067235, Final residual = 4.37786790544e-07, No Iterations 1
DILUPBiCG:  Solving for Uy, Initial residual = 0.00709233840827, Final residual = 4.02673193466e-06, No Iterations 1
DILUPBiCG:  Solving for Uz, Initial residual = 0.000981249602044, Final residual = 9.30428223385e-07, No Iterations 1
GAMG:  Solving for p, Initial residual = 0.000423127419316, Final residual = 0.000211406057763, No Iterations 414
time step continuity errors : sum local = 2.876934358e-08, global = 2.99564113473e-11, cumulative = 2.48914412387e-08
ExecutionTime = 194.74 s  ClockTime = 251 s

Time = 107

DILUPBiCG:  Solving for Ux, Initial residual = 0.00153567450725, Final residual = 4.33351780165e-07, No Iterations 1
DILUPBiCG:  Solving for Uy, Initial residual = 0.00703746849506, Final residual = 3.98450657662e-06, No Iterations 1
DILUPBiCG:  Solving for Uz, Initial residual = 0.000968804119662, Final residual = 9.23519559378e-07, No Iterations 1
GAMG:  Solving for p, Initial residual = 0.000426280252242, Final residual = 0.000212639153719, No Iterations 428
time step continuity errors : sum local = 2.88530777012e-08, global = 2.66602476969e-11, cumulative = 2.49181014864e-08
ExecutionTime = 196.91 s  ClockTime = 254 s

Time = 108

DILUPBiCG:  Solving for Ux, Initial residual = 0.00151752380547, Final residual = 4.3065099765e-07, No Iterations 1
DILUPBiCG:  Solving for Uy, Initial residual = 0.00692501217597, Final residual = 3.90096869738e-06, No Iterations 1
DILUPBiCG:  Solving for Uz, Initial residual = 0.000952279921027, Final residual = 9.1402489975e-07, No Iterations 1
GAMG:  Solving for p, Initial residual = 0.000428745069125, Final residual = 0.000213714267937, No Iterations 420
time step continuity errors : sum local = 2.89238772368e-08, global = 2.62066083138e-11, cumulative = 2.49443080947e-08
ExecutionTime = 198.93 s  ClockTime = 257 s

Time = 109

DILUPBiCG:  Solving for Ux, Initial residual = 0.00149965556087, Final residual = 4.25922726406e-07, No Iterations 1
DILUPBiCG:  Solving for Uy, Initial residual = 0.00691314029407, Final residual = 3.93623703989e-06, No Iterations 1
DILUPBiCG:  Solving for Uz, Initial residual = 0.000939813497644, Final residual = 9.08737355967e-07, No Iterations 1
GAMG:  Solving for p, Initial residual = 0.00041690009221, Final residual = 0.000207904029985, No Iterations 418
time step continuity errors : sum local = 2.80694028394e-08, global = 2.65883693939e-11, cumulative = 2.49708964641e-08
ExecutionTime = 200.99 s  ClockTime = 259 s

Time = 110

DILUPBiCG:  Solving for Ux, Initial residual = 0.00148210560297, Final residual = 4.20353489559e-07, No Iterations 1
DILUPBiCG:  Solving for Uy, Initial residual = 0.00685871850264, Final residual = 3.87824166007e-06, No Iterations 1
DILUPBiCG:  Solving for Uz, Initial residual = 0.000932215085254, Final residual = 9.06792759461e-07, No Iterations 1
GAMG:  Solving for p, Initial residual = 0.00040249337438, Final residual = 0.000201002139205, No Iterations 404
time step continuity errors : sum local = 2.70696838541e-08, global = 2.84896853934e-11, cumulative = 2.49993861495e-08
ExecutionTime = 202.94 s  ClockTime = 262 s

Time = 111

DILUPBiCG:  Solving for Ux, Initial residual = 0.00146482472181, Final residual = 4.17562149165e-07, No Iterations 1
DILUPBiCG:  Solving for Uy, Initial residual = 0.00698320778214, Final residual = 3.99486234039e-06, No Iterations 1
DILUPBiCG:  Solving for Uz, Initial residual = 0.000922440563108, Final residual = 9.02143151822e-07, No Iterations 1
GAMG:  Solving for p, Initial residual = 0.000391805706933, Final residual = 0.000195170557003, No Iterations 380
time step continuity errors : sum local = 2.62149445465e-08, global = 3.13490149459e-11, cumulative = 2.50307351644e-08
ExecutionTime = 204.82 s  ClockTime = 264 s

Time = 112

DILUPBiCG:  Solving for Ux, Initial residual = 0.00144766561866, Final residual = 4.12711993659e-07, No Iterations 1
DILUPBiCG:  Solving for Uy, Initial residual = 0.00690761118299, Final residual = 3.97793199018e-06, No Iterations 1
DILUPBiCG:  Solving for Uz, Initial residual = 0.000909609920175, Final residual = 8.94656546738e-07, No Iterations 1
GAMG:  Solving for p, Initial residual = 0.000394934909471, Final residual = 0.000196720043886, No Iterations 348
time step continuity errors : sum local = 2.63514568731e-08, global = 3.53058726236e-11, cumulative = 2.50660410371e-08
ExecutionTime = 206.53 s  ClockTime = 267 s

Time = 113

DILUPBiCG:  Solving for Ux, Initial residual = 0.00143071668164, Final residual = 4.08134593518e-07, No Iterations 1
DILUPBiCG:  Solving for Uy, Initial residual = 0.00686746010241, Final residual = 3.90244807502e-06, No Iterations 1
DILUPBiCG:  Solving for Uz, Initial residual = 0.000896167708551, Final residual = 8.87033136343e-07, No Iterations 1
GAMG:  Solving for p, Initial residual = 0.000395342428632, Final residual = 0.000197573042619, No Iterations 338
time step continuity errors : sum local = 2.63963885104e-08, global = 3.65878873809e-11, cumulative = 2.51026289244e-08
ExecutionTime = 208.28 s  ClockTime = 269 s

Time = 114

DILUPBiCG:  Solving for Ux, Initial residual = 0.0014140557424, Final residual = 4.04264376033e-07, No Iterations 1
DILUPBiCG:  Solving for Uy, Initial residual = 0.00686820993395, Final residual = 3.90049454701e-06, No Iterations 1
DILUPBiCG:  Solving for Uz, Initial residual = 0.00088627749276, Final residual = 8.8295687829e-07, No Iterations 1
GAMG:  Solving for p, Initial residual = 0.000383222549154, Final residual = 0.000191450462777, No Iterations 360
time step continuity errors : sum local = 2.55123960793e-08, global = 3.33986906852e-11, cumulative = 2.51360276151e-08
ExecutionTime = 210.09 s  ClockTime = 271 s

Time = 115

DILUPBiCG:  Solving for Ux, Initial residual = 0.00139773547475, Final residual = 3.98656704013e-07, No Iterations 1
DILUPBiCG:  Solving for Uy, Initial residual = 0.00688753425782, Final residual = 3.9176974955e-06, No Iterations 1
DILUPBiCG:  Solving for Uz, Initial residual = 0.000878178861432, Final residual = 8.80346769559e-07, No Iterations 1
GAMG:  Solving for p, Initial residual = 0.000370031262534, Final residual = 0.000184472525382, No Iterations 396
time step continuity errors : sum local = 2.45187314234e-08, global = 2.83699412586e-11, cumulative = 2.51643975564e-08
ExecutionTime = 211.98 s  ClockTime = 273 s

Time = 116

DILUPBiCG:  Solving for Ux, Initial residual = 0.00138200544903, Final residual = 3.9693281577e-07, No Iterations 1
DILUPBiCG:  Solving for Uy, Initial residual = 0.006883336804, Final residual = 3.88843695044e-06, No Iterations 1
DILUPBiCG:  Solving for Uz, Initial residual = 0.000868573325111, Final residual = 8.76115367667e-07, No Iterations 1
GAMG:  Solving for p, Initial residual = 0.000365140321047, Final residual = 0.000182554067351, No Iterations 414
time step continuity errors : sum local = 2.42018265126e-08, global = 2.50537558703e-11, cumulative = 2.51894513123e-08
ExecutionTime = 213.97 s  ClockTime = 276 s

Time = 117

DILUPBiCG:  Solving for Ux, Initial residual = 0.00136667868175, Final residual = 3.908674418e-07, No Iterations 1
DILUPBiCG:  Solving for Uy, Initial residual = 0.00683530503217, Final residual = 3.90469920853e-06, No Iterations 1
DILUPBiCG:  Solving for Uz, Initial residual = 0.000858068318576, Final residual = 8.71141370903e-07, No Iterations 1
GAMG:  Solving for p, Initial residual = 0.000359102891585, Final residual = 0.000179001635918, No Iterations 426
time step continuity errors : sum local = 2.36737220121e-08, global = 2.26711029343e-11, cumulative = 2.52121224152e-08
ExecutionTime = 216.05 s  ClockTime = 278 s

Time = 118

DILUPBiCG:  Solving for Ux, Initial residual = 0.00135160105201, Final residual = 3.8803519473e-07, No Iterations 1
DILUPBiCG:  Solving for Uy, Initial residual = 0.00675755051202, Final residual = 3.84726669491e-06, No Iterations 1
DILUPBiCG:  Solving for Uz, Initial residual = 0.000847783375507, Final residual = 8.66728207723e-07, No Iterations 1
GAMG:  Solving for p, Initial residual = 0.000351324419208, Final residual = 0.000175531577039, No Iterations 424
time step continuity errors : sum local = 2.31614606708e-08, global = 2.21569390381e-11, cumulative = 2.52342793542e-08
ExecutionTime = 218.1 s  ClockTime = 281 s

Time = 119

DILUPBiCG:  Solving for Ux, Initial residual = 0.00133676345018, Final residual = 3.84048779456e-07, No Iterations 1
DILUPBiCG:  Solving for Uy, Initial residual = 0.00678047551645, Final residual = 3.87121095865e-06, No Iterations 1
DILUPBiCG:  Solving for Uz, Initial residual = 0.00083896471552, Final residual = 8.63245564951e-07, No Iterations 1
GAMG:  Solving for p, Initial residual = 0.000339577320164, Final residual = 0.00016949353858, No Iterations 420
time step continuity errors : sum local = 2.23138049996e-08, global = 2.26005667713e-11, cumulative = 2.5256879921e-08
ExecutionTime = 220.15 s  ClockTime = 283 s

Time = 120

DILUPBiCG:  Solving for Ux, Initial residual = 0.00132216056594, Final residual = 3.80266449228e-07, No Iterations 1
DILUPBiCG:  Solving for Uy, Initial residual = 0.00669790282774, Final residual = 3.81431582249e-06, No Iterations 1
DILUPBiCG:  Solving for Uz, Initial residual = 0.000830334792866, Final residual = 8.59922295699e-07, No Iterations 1
GAMG:  Solving for p, Initial residual = 0.000335796111105, Final residual = 0.000167762302483, No Iterations 396
time step continuity errors : sum local = 2.20345411283e-08, global = 2.49923867378e-11, cumulative = 2.52818723077e-08
ExecutionTime = 222.09 s  ClockTime = 286 s

Time = 121

DILUPBiCG:  Solving for Ux, Initial residual = 0.00130775330993, Final residual = 3.77828918302e-07, No Iterations 1
DILUPBiCG:  Solving for Uy, Initial residual = 0.0066840840925, Final residual = 3.79316183793e-06, No Iterations 1
DILUPBiCG:  Solving for Uz, Initial residual = 0.00082110741304, Final residual = 8.55804701864e-07, No Iterations 1
GAMG:  Solving for p, Initial residual = 0.000337462191483, Final residual = 0.000168317602062, No Iterations 374
time step continuity errors : sum local = 2.20557343333e-08, global = 2.75938229886e-11, cumulative = 2.53094661307e-08
ExecutionTime = 223.92 s  ClockTime = 288 s

Time = 122

DILUPBiCG:  Solving for Ux, Initial residual = 0.00129355197216, Final residual = 3.72629922826e-07, No Iterations 1
DILUPBiCG:  Solving for Uy, Initial residual = 0.00672229146704, Final residual = 3.87245208019e-06, No Iterations 1
DILUPBiCG:  Solving for Uz, Initial residual = 0.000811937370788, Final residual = 8.52113081401e-07, No Iterations 1
GAMG:  Solving for p, Initial residual = 0.000338835722946, Final residual = 0.000169145274957, No Iterations 366
time step continuity errors : sum local = 2.21125947406e-08, global = 2.86484968004e-11, cumulative = 2.53381146275e-08
ExecutionTime = 225.72 s  ClockTime = 291 s

Time = 123

DILUPBiCG:  Solving for Ux, Initial residual = 0.0012795710226, Final residual = 3.69903389024e-07, No Iterations 1
DILUPBiCG:  Solving for Uy, Initial residual = 0.00664513242504, Final residual = 3.7939580421e-06, No Iterations 1
DILUPBiCG:  Solving for Uz, Initial residual = 0.000802854839522, Final residual = 8.48459288505e-07, No Iterations 1
GAMG:  Solving for p, Initial residual = 0.000336067504418, Final residual = 0.000167771135536, No Iterations 376
time step continuity errors : sum local = 2.18821276504e-08, global = 2.73293102534e-11, cumulative = 2.53654439378e-08
ExecutionTime = 227.59 s  ClockTime = 293 s

Time = 124

DILUPBiCG:  Solving for Ux, Initial residual = 0.00126583778853, Final residual = 3.66095629666e-07, No Iterations 1
[...]
DILUPBiCG:  Solving for Uy, Initial residual = 0.00381295821517, Final residual = 2.51198179219e-06, No Iterations 1
DILUPBiCG:  Solving for Uz, Initial residual = 2.11521520691e-06, Final residual = 2.81037085131e-09, No Iterations 1
GAMG:  Solving for p, Initial residual = 1.24171255755e-06, Final residual = 6.20205713192e-07, No Iterations 274
time step continuity errors : sum local = 5.97984441369e-11, global = 7.84777944891e-14, cumulative = 3.06159402117e-08
ExecutionTime = 1677.46 s  ClockTime = 2187 s

Time = 1278

DILUPBiCG:  Solving for Ux, Initial residual = 2.5757700746e-06, Final residual = 6.15902193413e-09, No Iterations 1
DILUPBiCG:  Solving for Uy, Initial residual = 0.00386985669236, Final residual = 2.53455898744e-06, No Iterations 1
DILUPBiCG:  Solving for Uz, Initial residual = 2.10800061406e-06, Final residual = 2.80088616205e-09, No Iterations 1
GAMG:  Solving for p, Initial residual = 1.23292387679e-06, Final residual = 6.14010953317e-07, No Iterations 276
time step continuity errors : sum local = 5.9200894487e-11, global = 7.75015229108e-14, cumulative = 3.06160177132e-08
ExecutionTime = 1679.17 s  ClockTime = 2189 s

Time = 1279

DILUPBiCG:  Solving for Ux, Initial residual = 2.56365796279e-06, Final residual = 6.26440486153e-09, No Iterations 1
DILUPBiCG:  Solving for Uy, Initial residual = 0.00379700603265, Final residual = 2.46049826967e-06, No Iterations 1
DILUPBiCG:  Solving for Uz, Initial residual = 2.099321994e-06, Final residual = 2.78930093988e-09, No Iterations 1
GAMG:  Solving for p, Initial residual = 1.23478769552e-06, Final residual = 6.15024144881e-07, No Iterations 272
time step continuity errors : sum local = 5.92982831654e-11, global = 7.84392376619e-14, cumulative = 3.06160961524e-08
ExecutionTime = 1680.63 s  ClockTime = 2191 s

Time = 1280

DILUPBiCG:  Solving for Ux, Initial residual = 2.55158909391e-06, Final residual = 6.4099186952e-09, No Iterations 1
DILUPBiCG:  Solving for Uy, Initial residual = 0.00379862198345, Final residual = 2.47569382572e-06, No Iterations 1
DILUPBiCG:  Solving for Uz, Initial residual = 2.09170676978e-06, Final residual = 2.77995436532e-09, No Iterations 1
GAMG:  Solving for p, Initial residual = 1.22560775889e-06, Final residual = 6.11683378166e-07, No Iterations 274
time step continuity errors : sum local = 5.89758208974e-11, global = 7.82456776155e-14, cumulative = 3.06161743981e-08
ExecutionTime = 1682.09 s  ClockTime = 2193 s

Time = 1281

DILUPBiCG:  Solving for Ux, Initial residual = 2.53959251996e-06, Final residual = 6.57228156359e-09, No Iterations 1
DILUPBiCG:  Solving for Uy, Initial residual = 0.00378986835896, Final residual = 2.47399200427e-06, No Iterations 1
DILUPBiCG:  Solving for Uz, Initial residual = 2.08181625044e-06, Final residual = 2.76956380222e-09, No Iterations 1
GAMG:  Solving for p, Initial residual = 1.2144928757e-06, Final residual = 6.04915746202e-07, No Iterations 278
time step continuity errors : sum local = 5.83232172106e-11, global = 7.65826868514e-14, cumulative = 3.06162509808e-08
ExecutionTime = 1683.51 s  ClockTime = 2195 s

Time = 1282

DILUPBiCG:  Solving for Ux, Initial residual = 2.52767987498e-06, Final residual = 6.6435413918e-09, No Iterations 1
DILUPBiCG:  Solving for Uy, Initial residual = 0.00384404567083, Final residual = 2.51734950626e-06, No Iterations 1
DILUPBiCG:  Solving for Uz, Initial residual = 2.07239921969e-06, Final residual = 2.75805326137e-09, No Iterations 1
GAMG:  Solving for p, Initial residual = 1.20442582078e-06, Final residual = 5.99841093536e-07, No Iterations 278
time step continuity errors : sum local = 5.78334653129e-11, global = 7.54456303192e-14, cumulative = 3.06163264264e-08
ExecutionTime = 1685 s  ClockTime = 2196 s

Time = 1283

DILUPBiCG:  Solving for Ux, Initial residual = 2.51581495267e-06, Final residual = 6.87999292274e-09, No Iterations 1
DILUPBiCG:  Solving for Uy, Initial residual = 0.0037813813926, Final residual = 2.443501548e-06, No Iterations 1
DILUPBiCG:  Solving for Uz, Initial residual = 2.06035763988e-06, Final residual = 2.74402446989e-09, No Iterations 1
GAMG:  Solving for p, Initial residual = 1.18686227657e-06, Final residual = 5.91680127621e-07, No Iterations 280
time step continuity errors : sum local = 5.7046537706e-11, global = 7.42858085314e-14, cumulative = 3.06164007122e-08
ExecutionTime = 1686.53 s  ClockTime = 2198 s

Time = 1284

DILUPBiCG:  Solving for Ux, Initial residual = 2.50400103255e-06, Final residual = 7.18984036131e-09, No Iterations 1
DILUPBiCG:  Solving for Uy, Initial residual = 0.00389154149422, Final residual = 2.53315760012e-06, No Iterations 1
DILUPBiCG:  Solving for Uz, Initial residual = 2.05321530979e-06, Final residual = 2.73411874953e-09, No Iterations 1
GAMG:  Solving for p, Initial residual = 1.1726325106e-06, Final residual = 5.85100426141e-07, No Iterations 280
time step continuity errors : sum local = 5.6411654201e-11, global = 7.36962239586e-14, cumulative = 3.06164744085e-08
ExecutionTime = 1688.01 s  ClockTime = 2200 s

Time = 1285

DILUPBiCG:  Solving for Ux, Initial residual = 2.49222502936e-06, Final residual = 7.34070399878e-09, No Iterations 1
DILUPBiCG:  Solving for Uy, Initial residual = 0.00378648303697, Final residual = 2.47917414625e-06, No Iterations 1
DILUPBiCG:  Solving for Uz, Initial residual = 2.04659155693e-06, Final residual = 2.72452378871e-09, No Iterations 1
GAMG:  Solving for p, Initial residual = 1.16253129782e-06, Final residual = 5.7916162552e-07, No Iterations 280
time step continuity errors : sum local = 5.58386401527e-11, global = 7.27205871792e-14, cumulative = 3.0616547129e-08
ExecutionTime = 1689.43 s  ClockTime = 2202 s

Time = 1286

DILUPBiCG:  Solving for Ux, Initial residual = 2.48050684476e-06, Final residual = 7.5151619291e-09, No Iterations 1
DILUPBiCG:  Solving for Uy, Initial residual = 0.00380245556801, Final residual = 2.47381105718e-06, No Iterations 1
DILUPBiCG:  Solving for Uz, Initial residual = 2.03629757274e-06, Final residual = 2.7136397415e-09, No Iterations 1
GAMG:  Solving for p, Initial residual = 1.15880348019e-06, Final residual = 5.77274569575e-07, No Iterations 278
time step continuity errors : sum local = 5.56564102321e-11, global = 7.27748605212e-14, cumulative = 3.06166199039e-08
ExecutionTime = 1690.91 s  ClockTime = 2204 s

Time = 1287

DILUPBiCG:  Solving for Ux, Initial residual = 2.46882644429e-06, Final residual = 7.72380426234e-09, No Iterations 1
DILUPBiCG:  Solving for Uy, Initial residual = 0.00383474078937, Final residual = 2.54550314696e-06, No Iterations 1
DILUPBiCG:  Solving for Uz, Initial residual = 2.02573146561e-06, Final residual = 2.70225823257e-09, No Iterations 1
GAMG:  Solving for p, Initial residual = 1.14811426204e-06, Final residual = 5.73550810044e-07, No Iterations 280
time step continuity errors : sum local = 5.52970684698e-11, global = 7.23486275706e-14, cumulative = 3.06166922525e-08
ExecutionTime = 1692.42 s  ClockTime = 2206 s

Time = 1288

DILUPBiCG:  Solving for Ux, Initial residual = 2.45722347709e-06, Final residual = 7.92471228316e-09, No Iterations 1
DILUPBiCG:  Solving for Uy, Initial residual = 0.00381891878686, Final residual = 2.48561308637e-06, No Iterations 1
DILUPBiCG:  Solving for Uz, Initial residual = 2.01772704508e-06, Final residual = 2.69157958903e-09, No Iterations 1
GAMG:  Solving for p, Initial residual = 1.14477845807e-06, Final residual = 5.71607248389e-07, No Iterations 280
time step continuity errors : sum local = 5.51098204291e-11, global = 7.23900208156e-14, cumulative = 3.06167646426e-08
ExecutionTime = 1693.92 s  ClockTime = 2208 s

Time = 1289

DILUPBiCG:  Solving for Ux, Initial residual = 2.44568038932e-06, Final residual = 8.18706470218e-09, No Iterations 1
DILUPBiCG:  Solving for Uy, Initial residual = 0.00381825506755, Final residual = 2.50340746302e-06, No Iterations 1
DILUPBiCG:  Solving for Uz, Initial residual = 2.00672688695e-06, Final residual = 2.67879674718e-09, No Iterations 1
GAMG:  Solving for p, Initial residual = 1.14129090425e-06, Final residual = 5.69874637661e-07, No Iterations 280
time step continuity errors : sum local = 5.4942376204e-11, global = 7.21609234536e-14, cumulative = 3.06168368035e-08
ExecutionTime = 1695.37 s  ClockTime = 2210 s

Time = 1290

DILUPBiCG:  Solving for Ux, Initial residual = 2.43419211442e-06, Final residual = 8.43065998489e-09, No Iterations 1
DILUPBiCG:  Solving for Uy, Initial residual = 0.00383321364256, Final residual = 2.50652260529e-06, No Iterations 1
DILUPBiCG:  Solving for Uz, Initial residual = 1.99956008603e-06, Final residual = 2.66941261534e-09, No Iterations 1
GAMG:  Solving for p, Initial residual = 1.12739022596e-06, Final residual = 5.63230329577e-07, No Iterations 284
time step continuity errors : sum local = 5.43015606766e-11, global = 7.05646687729e-14, cumulative = 3.06169073681e-08
ExecutionTime = 1696.8 s  ClockTime = 2212 s

Time = 1291

DILUPBiCG:  Solving for Ux, Initial residual = 2.42278244504e-06, Final residual = 8.6933953324e-09, No Iterations 1
DILUPBiCG:  Solving for Uy, Initial residual = 0.00387308289919, Final residual = 2.5442814844e-06, No Iterations 1
DILUPBiCG:  Solving for Uz, Initial residual = 1.99002602402e-06, Final residual = 2.65763304781e-09, No Iterations 1
GAMG:  Solving for p, Initial residual = 1.12437844016e-06, Final residual = 5.61186279548e-07, No Iterations 282
time step continuity errors : sum local = 5.41042836724e-11, global = 7.04774256834e-14, cumulative = 3.06169778456e-08
ExecutionTime = 1698.22 s  ClockTime = 2214 s

Time = 1292

DILUPBiCG:  Solving for Ux, Initial residual = 2.41140044293e-06, Final residual = 9.02704402709e-09, No Iterations 1
DILUPBiCG:  Solving for Uy, Initial residual = 0.00379598421693, Final residual = 2.4837775587e-06, No Iterations 1
DILUPBiCG:  Solving for Uz, Initial residual = 1.98005056368e-06, Final residual = 2.6457800621e-09, No Iterations 1
GAMG:  Solving for p, Initial residual = 1.11528147045e-06, Final residual = 5.57324207555e-07, No Iterations 282
time step continuity errors : sum local = 5.37317132778e-11, global = 6.97843462885e-14, cumulative = 3.06170476299e-08
ExecutionTime = 1699.68 s  ClockTime = 2215 s

Time = 1293

DILUPBiCG:  Solving for Ux, Initial residual = 2.40007272986e-06, Final residual = 9.275063605e-09, No Iterations 1
DILUPBiCG:  Solving for Uy, Initial residual = 0.0038528923193, Final residual = 2.50619566247e-06, No Iterations 1
DILUPBiCG:  Solving for Uz, Initial residual = 1.97273862516e-06, Final residual = 2.63725265596e-09, No Iterations 1
GAMG:  Solving for p, Initial residual = 1.10908474655e-06, Final residual = 5.53834612993e-07, No Iterations 282
time step continuity errors : sum local = 5.33950779787e-11, global = 6.92009408469e-14, cumulative = 3.06171168309e-08
ExecutionTime = 1701.14 s  ClockTime = 2217 s

Time = 1294

DILUPBiCG:  Solving for Ux, Initial residual = 2.38879498343e-06, Final residual = 9.53617042177e-09, No Iterations 1
DILUPBiCG:  Solving for Uy, Initial residual = 0.00384673283478, Final residual = 2.51712218991e-06, No Iterations 1
DILUPBiCG:  Solving for Uz, Initial residual = 1.96348840204e-06, Final residual = 2.62707838263e-09, No Iterations 1
GAMG:  Solving for p, Initial residual = 1.09260129701e-06, Final residual = 5.45963455408e-07, No Iterations 286
time step continuity errors : sum local = 5.26358375235e-11, global = 6.77984015535e-14, cumulative = 3.06171846293e-08
ExecutionTime = 1702.63 s  ClockTime = 2220 s

Time = 1295

DILUPBiCG:  Solving for Ux, Initial residual = 2.37759627014e-06, Final residual = 1.00007140294e-08, No Iterations 1
DILUPBiCG:  Solving for Uy, Initial residual = 0.00381862516121, Final residual = 2.48806564335e-06, No Iterations 1
DILUPBiCG:  Solving for Uz, Initial residual = 1.95368964786e-06, Final residual = 2.61376727513e-09, No Iterations 1
GAMG:  Solving for p, Initial residual = 1.09303549254e-06, Final residual = 5.4547404771e-07, No Iterations 282
time step continuity errors : sum local = 5.25884296948e-11, global = 6.85778713973e-14, cumulative = 3.06172532071e-08
ExecutionTime = 1704.07 s  ClockTime = 2221 s

Time = 1296

DILUPBiCG:  Solving for Ux, Initial residual = 2.36642328766e-06, Final residual = 1.0289136177e-08, No Iterations 1
DILUPBiCG:  Solving for Uy, Initial residual = 0.00382634566467, Final residual = 2.49815560429e-06, No Iterations 1
DILUPBiCG:  Solving for Uz, Initial residual = 1.94543979989e-06, Final residual = 2.60299670893e-09, No Iterations 1
GAMG:  Solving for p, Initial residual = 1.07744743523e-06, Final residual = 5.37888190462e-07, No Iterations 286
time step continuity errors : sum local = 5.18569195108e-11, global = 6.75298904607e-14, cumulative = 3.0617320737e-08
ExecutionTime = 1705.54 s  ClockTime = 2223 s

Time = 1297

DILUPBiCG:  Solving for Ux, Initial residual = 2.35532232375e-06, Final residual = 1.06830470898e-08, No Iterations 1
DILUPBiCG:  Solving for Uy, Initial residual = 0.0037919349902, Final residual = 2.44505647791e-06, No Iterations 1
DILUPBiCG:  Solving for Uz, Initial residual = 1.93694288743e-06, Final residual = 2.59287799425e-09, No Iterations 1
GAMG:  Solving for p, Initial residual = 1.07537502284e-06, Final residual = 5.35905679038e-07, No Iterations 284
time step continuity errors : sum local = 5.16653558668e-11, global = 6.76570734838e-14, cumulative = 3.06173883941e-08
ExecutionTime = 1706.97 s  ClockTime = 2225 s

Time = 1298

DILUPBiCG:  Solving for Ux, Initial residual = 2.34425727744e-06, Final residual = 1.11823346891e-08, No Iterations 1
DILUPBiCG:  Solving for Uy, Initial residual = 0.00377449933517, Final residual = 2.48576581279e-06, No Iterations 1
DILUPBiCG:  Solving for Uz, Initial residual = 1.92922159173e-06, Final residual = 2.5842772634e-09, No Iterations 1
GAMG:  Solving for p, Initial residual = 1.06632921416e-06, Final residual = 5.30935934268e-07, No Iterations 286
time step continuity errors : sum local = 5.11863550387e-11, global = 6.67109048369e-14, cumulative = 3.0617455105e-08
ExecutionTime = 1708.39 s  ClockTime = 2227 s

Time = 1299

DILUPBiCG:  Solving for Ux, Initial residual = 2.33325604033e-06, Final residual = 1.17481478684e-08, No Iterations 1
DILUPBiCG:  Solving for Uy, Initial residual = 0.00380616588554, Final residual = 2.49547484089e-06, No Iterations 1
DILUPBiCG:  Solving for Uz, Initial residual = 1.92073916797e-06, Final residual = 2.57408125163e-09, No Iterations 1
GAMG:  Solving for p, Initial residual = 1.06088235911e-06, Final residual = 5.30331863602e-07, No Iterations 284
time step continuity errors : sum local = 5.11277555623e-11, global = 6.67317264018e-14, cumulative = 3.06175218367e-08
ExecutionTime = 1709.82 s  ClockTime = 2229 s

Time = 1300

DILUPBiCG:  Solving for Ux, Initial residual = 2.32229941387e-06, Final residual = 1.22264835886e-08, No Iterations 1
DILUPBiCG:  Solving for Uy, Initial residual = 0.00377287808156, Final residual = 2.47837051108e-06, No Iterations 1
DILUPBiCG:  Solving for Uz, Initial residual = 1.91112138775e-06, Final residual = 2.56238497781e-09, No Iterations 1
GAMG:  Solving for p, Initial residual = 1.05816256723e-06, Final residual = 5.28396719074e-07, No Iterations 284
time step continuity errors : sum local = 5.0940954526e-11, global = 6.64333372833e-14, cumulative = 3.06175882701e-08
ExecutionTime = 1711.45 s  ClockTime = 2231 s

Time = 1301

DILUPBiCG:  Solving for Ux, Initial residual = 2.31139998615e-06, Final residual = 1.28099841569e-08, No Iterations 1
DILUPBiCG:  Solving for Uy, Initial residual = 0.00386198384437, Final residual = 2.55203701374e-06, No Iterations 1
DILUPBiCG:  Solving for Uz, Initial residual = 1.90292119907e-06, Final residual = 2.55237685892e-09, No Iterations 1
GAMG:  Solving for p, Initial residual = 1.05074067666e-06, Final residual = 5.25215018946e-07, No Iterations 286
time step continuity errors : sum local = 5.06339802005e-11, global = 6.56408223935e-14, cumulative = 3.06176539109e-08
ExecutionTime = 1712.91 s  ClockTime = 2233 s

Time = 1302

DILUPBiCG:  Solving for Ux, Initial residual = 2.30056319428e-06, Final residual = 1.35349373533e-08, No Iterations 1
DILUPBiCG:  Solving for Uy, Initial residual = 0.00384380849481, Final residual = 2.51782317037e-06, No Iterations 1
DILUPBiCG:  Solving for Uz, Initial residual = 1.89307466112e-06, Final residual = 2.54109928341e-09, No Iterations 1
GAMG:  Solving for p, Initial residual = 1.04843606552e-06, Final residual = 5.2304172621e-07, No Iterations 286
time step continuity errors : sum local = 5.04242409701e-11, global = 6.52512934248e-14, cumulative = 3.06177191622e-08
ExecutionTime = 1714.36 s  ClockTime = 2235 s

Time = 1303

DILUPBiCG:  Solving for Ux, Initial residual = 2.28978597355e-06, Final residual = 1.44117513851e-08, No Iterations 1
DILUPBiCG:  Solving for Uy, Initial residual = 0.00382011108975, Final residual = 2.51102107977e-06, No Iterations 1
DILUPBiCG:  Solving for Uz, Initial residual = 1.88545412049e-06, Final residual = 2.53032143604e-09, No Iterations 1
GAMG:  Solving for p, Initial residual = 1.04322473448e-06, Final residual = 5.20127938956e-07, No Iterations 286
time step continuity errors : sum local = 5.01429263085e-11, global = 6.45168568135e-14, cumulative = 3.0617783679e-08
ExecutionTime = 1715.81 s  ClockTime = 2237 s

Time = 1304

DILUPBiCG:  Solving for Ux, Initial residual = 2.27905669275e-06, Final residual = 1.52255611887e-08, No Iterations 1
DILUPBiCG:  Solving for Uy, Initial residual = 0.00379265051906, Final residual = 2.46419567964e-06, No Iterations 1
DILUPBiCG:  Solving for Uz, Initial residual = 1.87606262982e-06, Final residual = 2.51952887951e-09, No Iterations 1
GAMG:  Solving for p, Initial residual = 1.02563331513e-06, Final residual = 5.12118696657e-07, No Iterations 290
time step continuity errors : sum local = 4.93707995337e-11, global = 6.31011135046e-14, cumulative = 3.06178467801e-08
ExecutionTime = 1717.28 s  ClockTime = 2238 s

Time = 1305

DILUPBiCG:  Solving for Ux, Initial residual = 2.26839749242e-06, Final residual = 1.61336499452e-08, No Iterations 1
DILUPBiCG:  Solving for Uy, Initial residual = 0.00377199692136, Final residual = 2.4898371574e-06, No Iterations 1
DILUPBiCG:  Solving for Uz, Initial residual = 1.86430191431e-06, Final residual = 2.50573993107e-09, No Iterations 1
GAMG:  Solving for p, Initial residual = 1.01796029351e-06, Final residual = 5.08524387122e-07, No Iterations 288
time step continuity errors : sum local = 4.90238934688e-11, global = 6.33360916061e-14, cumulative = 3.06179101162e-08
ExecutionTime = 1718.72 s  ClockTime = 2240 s

Time = 1306

DILUPBiCG:  Solving for Ux, Initial residual = 2.25776512962e-06, Final residual = 1.7409082092e-08, No Iterations 1
DILUPBiCG:  Solving for Uy, Initial residual = 0.00382798886347, Final residual = 2.49001248215e-06, No Iterations 1
DILUPBiCG:  Solving for Uz, Initial residual = 1.85659333899e-06, Final residual = 2.49516885421e-09, No Iterations 1
GAMG:  Solving for p, Initial residual = 1.01147183006e-06, Final residual = 5.0367418097e-07, No Iterations 288
time step continuity errors : sum local = 4.85562277473e-11, global = 6.32902744431e-14, cumulative = 3.06179734065e-08
ExecutionTime = 1720.18 s  ClockTime = 2242 s

Time = 1307

DILUPBiCG:  Solving for Ux, Initial residual = 2.24718673303e-06, Final residual = 1.84968586899e-08, No Iterations 1
DILUPBiCG:  Solving for Uy, Initial residual = 0.00382291336424, Final residual = 2.49201725545e-06, No Iterations 1
DILUPBiCG:  Solving for Uz, Initial residual = 1.84792104113e-06, Final residual = 2.48510159971e-09, No Iterations 1
GAMG:  Solving for p, Initial residual = 9.90072677262e-07, Final residual = 4.93501991999e-07, No Iterations 294
time step continuity errors : sum local = 4.75752131492e-11, global = 6.09219357273e-14, cumulative = 3.06180343284e-08
ExecutionTime = 1721.74 s  ClockTime = 2244 s


SIMPLE solution converged in 1307 iterations

End

